Using: /usr/synopsys/HSPICE/hspice/O-2018.09-1/hspice/linux64/hspice  -i 'nmos_2w.sp'
 ****** HSPICE -- O-2018.09-1 linux64 (Sep 27 2018) ******                      
  Copyright (c) 1986 - 2024 by Synopsys, Inc. All Rights Reserved.              
  This software and the associated documentation are proprietary
  to Synopsys, Inc. This software may only be used in accordance
  with the terms and conditions of a written license agreement with
  Synopsys, Inc. All other use, reproduction, or distribution of
  this software is strictly prohibited.
  Input File: nmos_2w.sp                                                        
  Command line options: /usr/synopsys/HSPICE/hspice/O-2018.09-1/hspice/linux64/hspice -i nmos_2w.sp
 lic:  
 lic: FLEXlm: SDK_11.6.9.6 
 lic: USER:   mohammed             HOSTNAME: husynposyseng 
 lic: HOSTID: 005056ba9913         PID:      11764 
 lic: Using FLEXlm license file: 
 lic: 27020@husynposyseng 
 lic: Checkout 1 hspice 
 lic: License/Maintenance for hspice will expire on 31-jan-2026/2024.09 
 lic: 1(in_use)/100(total) FLOATING license(s) on SERVER 27020@husynposyseng 
 lic:   
1****** HSPICE -- O-2018.09-1 linux64 (Sep 27 2018) ******                      
 ******  
 ***** nmos.sp

 ****** circuit name directory
 circuit number to circuit name directory
   number circuitname                     definition         multiplier
        0 main circuit
        1 mmn.                            n105_hvt           1.00 
 ******  
 ***** nmos.sp

 ****** mos   model parameters tnom=  25.000 temp=  25.000 ******
 Model file: /home/mohammed/saed32nm.lib
 Model line:         1730
 Model Name: n105_hvt  
 BSIM4 Model (Level 54)
    MOBMOD = 0
    BINUNIT = 1
    PARAMCHK = 0
    CAPMOD = 2
    DIOMOD = 1
    RDSMOD = 0
    TRNQSMOD = 0
    ACNQSMOD = 0
    RBODYMOD = 0
    RGATEMOD = 0
    PERMOD = 1
    GEOMOD = 0
    RGEOMOD = 0
    FNOIMOD = 1
    TNOIMOD = 0
    IGCMOD = 1
    IGBMOD = 1
    STIMOD = 1
    VBFWDMOD = 0
    VERSION =    4.5 
    TOXREF = 2.39e-09 
    TOXE = 2.39e-09 
    TOXP = 2.24e-09 
    TOXM = 2.39e-09 
    DTOX =      0 
    EPSROX =    3.9 
    CDSC =      0 
    CDSCB = -0.00415 
    CDSCD =      0 
    CIT =      0 
    NFACTOR =    1.9 
    XJ =  1e-07 
    VSAT = 2.141e+05 
    A0 =    1.8 
    AGS =  1.232 
    A1 =      0 
    A2 =    0.4 
    AT = 0.00122 
    KETA =      0 
    NSUB =  6e+16 
    NDEP =  5e+17 
    NSD =  1e+20 
    NGATE =  1e+23 
    GAMMA1 =      0 
    GAMMA2 =      0 
    VBX =      0 
    VBM =     -3 
    XT = 1.55e-07 
    K1 = 0.3435 
    KT1 = -0.2796 
    KT1L =  1e-11 
    KT2 = -0.0232 
    K2 = -0.03171 
    K3 =  -2.15 
    K3B =  -0.22 
    LPE0 =  1e-08 
    LPEB =  2e-08 
    DVTP0 = 1.2e-06 
    DVTP1 =      0 
    W0 =      0 
    DVT0 =  3.571 
    DVT1 =    0.8 
    DVT2 =   0.06 
    DVT0W = -0.002336 
    DVT1W = 4.278e+05 
    DVT2W =   0.15 
    DROUT =   0.06 
    DSUB =    0.9 
    VTH0 =  0.447 
    EU =   1.67 
    UA = 9.209e-10 
    UA1 = 0.003827 
    UB = 2.207e-18 
    UB1 = -0.004406 
    UC = 2.6e-10 
    UC1 =      0 
    U0 =   1900 
    UTE =  -1.91 
    VOFF = -0.1554 
    VOFFL = -2.94e-09 
    MINV = -0.168 
    FPROUT =     50 
    PDITS = 0.5299 
    PDITSD =    0.9 
    PDITSL = 2.5e+06 
    DELTA =  0.005 
    RDSW =  400.5 
    RDSWMIN =      0 
    RDWMIN =    180 
    RSWMIN =    180 
    RDW =    100 
    RSW =    100 
    PRWG =      0 
    PRWB =    0.1 
    PRT =  0.015 
    ETA0 =  0.263 
    ETAB =  -0.12 
    PCLM = 0.5198 
    PDIBLC1 = 0.00015 
    PDIBLC2 =  0.025 
    PDIBLCB =   -0.7 
    PSCBE1 =  5e+09 
    PSCBE2 =  5e-06 
    PVAG =      6 
    WR =      1 
    DWG =      0 
    DWB =      0 
    XW = 4.3e-07 
    XWREF = 4.3e-07 
    XL =  2e-09 
    XLREF =  2e-09 
    B0 =      0 
    B1 =      0 
    ALPHA0 =  4e-12 
    ALPHA1 =      0 
    AGIDL = 1.5e-10 
    BGIDL = 9.749e+08 
    CGIDL =    3.2 
    PHIN =    0.1 
    EGIDL =   0.01 
    AIGC = 0.01086 
    BIGC = 0.0009868 
    CIGC = 0.000296 
    AIGSD = 0.00889 
    BIGSD = 0.0007742 
    CIGSD = 0.01464 
    AIGBACC = 0.01356 
    BIGBACC = 0.00279 
    CIGBACC = 0.01086 
    AIGBINV = 0.01142 
    BIGBINV = 0.001212 
    CIGBINV = 0.001479 
    NIGC =  3.294 
    NIGBINV =      3 
    NIGBACC =   8.23 
    NTOX =      1 
    EIGBINV =    1.1 
    PIGCD =      1 
    POXEDGE =  1.276 
    XRCRG1 =     12 
    TNOIA =    1.5 
    TNOIB =    3.5 
    NTNOI =      1 
    XRCRG2 =      1 
    BETA0 =      2 
    IJTHDFWD =    0.1 
    IJTHSFWD =    0.1 
    IJTHDREV =    0.1 
    IJTHSREV =    0.1 
    XJBVD =      1 
    XJBVS =      1 
    BVD =     12 
    BVS =     12 
    VFB =     -1 
    GBMIN =  1e-12 
    RBDB =     50 
    RBPB =     50 
    RBSB =     50 
    RBPS =     50 
    RBPD =     50 
    CGSL = 1.765e-10 
    CGDL = 1.077e-09 
    CKAPPAS =    4.5 
    CKAPPAD =    4.5 
    CF =      0 
    CLC =      0 
    CLE =    0.6 
    DWC =      0 
    DLC = 7.834e-09 
    DLCIG =  5e-09 
    DWJ =      0 
    VFBCV =     -1 
    ACDE =    0.4 
    MOIN =      5 
    NOFF =  2.118 
    VOFFCV = -0.2843 
    DMCG =  7e-08 
    DMCI = 3.5e-08 
    DMDG =  6e-08 
    DMCGT =      0 
    XGW =  4e-08 
    XGL = -2e-09 
    RSHG =     11 
    NGCON =      1 
    TCJ = 0.0007111 
    TPB = 0.001251 
    TCJSW = 0.0005498 
    TPBSW = 0.00108 
    TCJSWG = 6.6e-05 
    TPBSWG = 0.002588 
    SK0 =      0 
    SK1 =      0 
    SK2 =      0 
    SL =  2e-06 
    SW =  2e-06 
    K =      0 
    LNFACTOR =   0.05 
    LLPE0 = 2.5e-09 
    LUTE = 0.03886 
    LBGIDL = -5e+06 
    LAIGC = -7.7e-06 
    LNOFF =   0.08 
    WU0 =  56.01 
    PVSAT =  223.3 
    TNOM =  298.1 
    CGSO = 5.1e-11 
    CGDO = 5.1e-11 
    CGBO =  1e-12 
    XPART =      0 
    RSH =     12 
    JSS =  1e-06 
    JSWS = 1.484e-13 
    JSWGS = 7.172e-13 
    PBS = 0.8977 
    MJS = 0.4077 
    PBSWS =      1 
    MJSWS = 0.5128 
    CJS = 0.1935 
    CJSWS = 8.2e-11 
    NJS =  1.104 
    PBSWGS =  1.442 
    MJSWGS =   0.98 
    CJSWGS = 3.2e-10 
    XTIS =   -0.6 
    JSD =  1e-06 
    JSWD = 1.484e-13 
    JSWGD = 7.172e-13 
    PBD = 0.8977 
    MJD = 0.4077 
    PBSWD =      1 
    MJSWD = 0.5128 
    CJD = 0.1935 
    CJSWD = 8.2e-11 
    NJD =  1.104 
    PBSWGD =  1.442 
    MJSWGD =   0.98 
    CJSWGD = 3.2e-10 
    XTID =   -0.6 
    LMLT =      1 
    WMLT =      1 
    LINT = 1.934e-10 
    LL =      0 
    LLC =      0 
    LLN =      1 
    LW =      0 
    LWC =      0 
    LWN =      1 
    LWL =      0 
    LWLC =      0 
    LMIN =      0 
    LMAX =      1 
    WINT =      0 
    WL =      0 
    WLC =      0 
    WLN =      1 
    WW =      0 
    WWC =      0 
    WWN =      1 
    WWL =      0 
    WWLC =      0 
    WMIN =      0 
    WMAX =      1 
    NOIA = 6.72e+41 
    NOIB = 5.413e+23 
    NOIC = 2.288e+09 
    EM = 4.1e+07 
    EF =   0.95 
    AF =      1 
    KF = 1.5e-27 
    TRS =      0 
    TRD =      0 
    TEMPMOD  =      1 
    LAMBDA   =      0 
    VTL      =  2e+05 m/s
    LC       =  5e-09 
    XN       =      3 
    LLAMBDA  =      0 
    LVTL     =      0 
    LXN      =      0 
    WLAMBDA  =      0 
    WVTL     =      0 
    WXN      =      0 
    PLAMBDA  =      0 
    PVTL     =      0 
    PXN      =      0 
    RNOIA    =  0.577 
    RNOIB    = 0.5164 
    SAREF(SA0) = 4.48e-07 m
    SBREF(SB0) = 4.48e-07 m
    WLOD     =      0 m
    KU0      =      0 1/m
    KVSAT    =      0 
    KVTH0    = 6.5e-10 m
    TKU0     =      0 
    LLODKU0  =      0 
    WLODKU0  =      0 
    LLODVTH  =      0 
    WLODVTH  =      0 
    LKU0     =      0 
    WKU0     =      0 
    PKU0     =      0 
    LKVTH0   =      0 
    WKVTH0   =      0 
    PKVTH0   =      0 
    STK2     =      0 
    LODK2    =      1 
    STETA0   =      0 
    LODETA0  =      1 
    LXRCRG1  =      0 
    WXRCRG1  =      0 
    PXRCRG1  =      0 
    LXRCRG2  =      0 
    WXRCRG2  =      0 
    PXRCRG2  =      0 
     *** UCB's BSIM4.4.0 new diode model is activated. ***
    *** UCB's Diode Model Parameters ***
    JTSS         =  5e-06 
    JTSSWS       = 1.2e-10 
    JTSSWGS      = 1.634e-08 
    JTSD         =  5e-06 
    JTSSWD       = 1.2e-10 
    JTSSWGD      = 1.634e-08 
    NJTS         =     20 
    NJTSSW       =     60 
    NJTSSWG      =  7.854 
    XTSS         =   0.02 
    XTSSWS       = 0.5842 
    XTSSWGS      =   0.09 
    XTSD         =   0.02 
    XTSSWD       = 0.5842 
    XTSSWGD      =   0.09 
    TNJTS        =      0 
    TNJTSSW      =    0.8 
    TNJTSSWG     =   0.04 
    VFBSDOFF     =      0 
    LVFBSDOFF    =      0 
    WVFBSDOFF    =      0 
    PVFBSDOFF    =      0 
    LINTNOI      =      0 
    VTSS         =     20 
    VTSD         =     20 
    VTSSWS       =     10 
    VTSSWD       =     10 
    VTSSWGS      =   10.8 
    VTSSWGD      =   10.8 
    TTDIOMOD     =      1 
     *** UCB's BSIM4.5.0 new model is activated. ***
    UD         =      0 
    UD1        =      0 
    UP         =   0.77 
    LP         = 9.65e-08 
    TVOFF      = 0.000366 
    TVFBSDOFF  =      0 
    RBPS0      =     50 
    RBPSL      =      0 
    RBPSW      =      0 
    RBPSNF     =      0 
    RBPD0      =     50 
    RBPDL      =      0 
    RBPDW      =      0 
    RBPDNF     =      0 
    RBPBX0     =    100 
    RBPBXL     =      0 
    RBPBXW     =      0 
    RBPBXNF    =      0 
    RBPBY0     =    100 
    RBPBYL     =      0 
    RBPBYW     =      0 
    RBPBYNF    =      0 
    RBSBX0     =    100 
    RBSBY0     =    100 
    RBDBX0     =    100 
    RBDBY0     =    100 
    RBSDBXL    =      0 
    RBSDBXW    =      0 
    RBSDBXNF   =      0 
    RBSDBYL    =      0 
    RBSDBYW    =      0 
    RBSDBYNF   =      0 
    LUD        =      0 
    LUD1       =      0 
    LUP        =      0 
    LLP        =      0 
    LTVOFF     =      0 
    LTVFBSDOFF =      0 
    WUD        =      0 
    WUD1       =      0 
    WUP        =      0 
    WLP        =      0 
    WTVOFF     =      0 
    WTVFBSDOFF =      0 
    PUD        =      0 
    PUD1       =      0 
    PUP        =      0 
    PLP        =      0 
    PTVOFF     =      0 
    PTVFBSDOFF =      0 
    WEB        = 7.5e+05 
    WEC        = -1e+05 
    KVTH0WE    = 6.063e-07 
    K2WE       =      0 
    KU0WE      =      0 
    SCREF      = 2.5e-06 
    WPEMOD     =      1 
    LKVTH0WE   =      0 
    LK2WE      =      0 
    LKU0WE     =      0 
    WKVTH0WE   =      0 
    WK2WE      =      0 
    WKU0WE     =      0 
    PKVTH0WE   =      0 
    PK2WE      =      0 
    PKU0WE     =      0 
  **warning** (nmos_2w.sp:22) Both nodes of element vgnd are connected together; Line ignored.
  
      

Element variations(Local):   element              parameter
 *****************************************************************
 ******  option summary
 ******
 runlvl  = 3         bypass  = 2.0000    
  Opening plot unit= 15
 file=nmos_2w.pa0

 ******
 ***** nmos.sp

 ****** dc transfer curves tnom=  25.000 temp=  70.000 ******
  *** parameter 0:vgs  =     0.            ***
  
x

 volt         current     current     current    
             vds         vgs         mmn.main    
    0.       -1.2464e-21  2.6099e-21  1.2464e-21 
   50.00000m  -21.4160p     4.2339f    21.4160p  
  100.00000m  -38.9990p    11.1169f    38.9990p  
  150.00000m  -59.8360p    21.1874f    59.8360p  
  200.00000m  -86.3367p    35.0641f    86.3367p  
  250.00000m -120.7009p    53.4572f   120.7009p  
  300.00000m -165.4594p    77.1805f   165.4594p  
  350.00000m -223.7290p   107.1640f   223.7290p  
  400.00000m -299.4231p   144.4698f   299.4231p  
  450.00000m -397.4816p   190.3081f   397.4816p  
  500.00000m -524.1475p   246.0565f   524.1475p  
  550.00000m -687.3081p   313.2806f   687.3081p  
  600.00000m -896.9199p   393.7578f   896.9199p  
  650.00000m   -1.1655n   489.5034f     1.1655n  
  700.00000m   -1.5090n   602.7999f     1.5090n  
  750.00000m   -1.9471n   736.2300f     1.9471n  
  800.00000m   -2.5050n   892.7131f     2.5050n  
  850.00000m   -3.2139n     1.0755p     3.2139n  
  900.00000m   -4.1130n     1.2885p     4.1130n  
  950.00000m   -5.2514n     1.5356p     5.2514n  
    1.00000    -6.6903n     1.8218p     6.6903n  
    1.05000    -8.5058n     2.1523p     8.5058n  
    1.10000   -10.7928n     2.5330p    10.7928n  
    1.15000   -13.6692n     2.9709p    13.6692n  
    1.20000   -17.2813n     3.4733p    17.2813n  
    1.25000   -21.8104n     4.0488p    21.8104n  
    1.30000   -27.4812n     4.7069p    27.4812n  
    1.35000   -34.5713n     5.4584p    34.5713n  
    1.40000   -43.4240n     6.3153p    43.4240n  
    1.45000   -54.4625n     7.2909p    54.4625n  
    1.50000   -68.2084n     8.4004p    68.2084n  
    1.55000   -85.3035n     9.6606p    85.3035n  
    1.60000  -106.5362n    11.0904p   106.5362n  
    1.65000  -132.8734n    12.7110p   132.8734n  
    1.70000  -165.4990n    14.5461p   165.4990n  
    1.75000  -205.8596n    16.6220p   205.8596n  
    1.80000  -255.7188n    18.9683p   255.7188n  
y
 ******
 ***** nmos.sp

 ****** dc transfer curves tnom=  25.000 temp=  70.000 ******
  *** parameter 0:vgs  =   200.0000m       ***
  
x

 volt         current    current    current   
             vds        vgs        mmn.main   
    0.         14.7554f  -29.5793f  -14.7554f 
   50.00000m   -1.5503n  -29.0707f    1.5503n 
  100.00000m   -2.8183n  -30.0934f    2.8183n 
  150.00000m   -4.3173n  -29.7966f    4.3173n 
  200.00000m   -6.2194n  -27.7375f    6.2194n 
  250.00000m   -8.6797n  -23.5005f    8.6797n 
  300.00000m  -11.8753n  -16.6160f   11.8753n 
  350.00000m  -16.0225n   -6.5449f   16.0225n 
  400.00000m  -21.3908n    7.3319f   21.3908n 
  450.00000m  -28.3175n   25.7249f   28.3175n 
  500.00000m  -37.2250n   49.4477f   37.2250n 
  550.00000m  -48.6412n   79.4306f   48.6412n 
  600.00000m  -63.2244n  116.7356f   63.2244n 
  650.00000m  -81.7935n  162.5731f   81.7935n 
  700.00000m -105.3638n  218.3205f  105.3638n 
  750.00000m -135.1908n  285.5435f  135.1908n 
  800.00000m -172.8218n  366.0196f  172.8218n 
  850.00000m -220.1564n  461.7639f  220.1564n 
  900.00000m -279.5191n  575.0590f  279.5191n 
  950.00000m -353.7420n  708.4875f  353.7420n 
    1.00000  -446.2611n  864.9690f  446.2611n 
    1.05000  -561.2251n    1.0478p  561.2251n 
    1.10000  -703.6171n    1.2607p  703.6171n 
    1.15000  -879.3875n    1.5079p  879.3875n 
    1.20000    -1.0956u    1.7940p    1.0956u 
    1.25000    -1.3606u    2.1245p    1.3606u 
    1.30000    -1.6840u    2.5053p    1.6840u 
    1.35000    -2.0772u    2.9431p    2.0772u 
    1.40000    -2.5530u    3.4455p    2.5530u 
    1.45000    -3.1262u    4.0210p    3.1262u 
    1.50000    -3.8129u    4.6792p    3.8129u 
    1.55000    -4.6313u    5.4307p    4.6313u 
    1.60000    -5.6007u    6.2875p    5.6007u 
    1.65000    -6.7419u    7.2631p    6.7419u 
    1.70000    -8.0758u    8.3726p    8.0758u 
    1.75000    -9.6237u    9.6328p    9.6237u 
    1.80000   -11.4056u   11.0626p   11.4056u 
y
 ******
 ***** nmos.sp

 ****** dc transfer curves tnom=  25.000 temp=  70.000 ******
  *** parameter 0:vgs  =   400.0000m       ***
  
x

 volt         current    current    current   
             vds        vgs        mmn.main   
    0.        212.0527f -424.1654f -212.0527f 
   50.00000m -100.1502n -407.1170f  100.1502n 
  100.00000m -179.5387n -396.9306f  179.5387n 
  150.00000m -270.7133n -390.3774f  270.7133n 
  200.00000m -383.2177n -386.2531f  383.2177n 
  250.00000m -524.5990n -386.1036f  524.5990n 
  300.00000m -702.6447n -387.2365f  702.6447n 
  350.00000m -926.0878n -386.9965f  926.0878n 
  400.00000m   -1.2049u -384.9974f    1.2049u 
  450.00000m   -1.5505u -380.8302f    1.5505u 
  500.00000m   -1.9757u -374.0273f    1.9757u 
  550.00000m   -2.4950u -364.0510f    2.4950u 
  600.00000m   -3.1239u -350.2834f    3.1239u 
  650.00000m   -3.8795u -332.0157f    3.8795u 
  700.00000m   -4.7794u -308.4358f    4.7794u 
  750.00000m   -5.8417u -278.6152f    5.8417u 
  800.00000m   -7.0841u -241.4938f    7.0841u 
  850.00000m   -8.5234u -195.8635f    8.5234u 
  900.00000m  -10.1744u -140.3488f   10.1744u 
  950.00000m  -12.0489u  -73.3864f   12.0489u 
    1.00000   -14.1550u    6.7987f   14.1550u 
    1.05000   -16.4961u  102.2192f   16.4961u 
    1.10000   -19.0700u  215.1552f   19.0700u 
    1.15000   -21.8685u  348.1868f   21.8685u 
    1.20000   -24.8771u  504.2308f   24.8771u 
    1.25000   -28.0753u  686.5816f   28.0753u 
    1.30000   -31.4370u  898.9572f   31.4370u 
    1.35000   -34.9310u    1.1456p   34.9310u 
    1.40000   -38.5232u    1.4311p   38.5232u 
    1.45000   -42.1768u    1.7609p   42.1768u 
    1.50000   -45.8549u    2.1409p   45.8549u 
    1.55000   -49.5216u    2.5779p   49.5216u 
    1.60000   -53.1433u    3.0795p   53.1433u 
    1.65000   -56.6907u    3.6541p   56.6907u 
    1.70000   -60.1390u    4.3112p   60.1390u 
    1.75000   -63.4691u    5.0616p   63.4691u 
    1.80000   -66.6677u    5.9173p   66.6677u 
y
 ******
 ***** nmos.sp

 ****** dc transfer curves tnom=  25.000 temp=  70.000 ******
  *** parameter 0:vgs  =   600.0000m       ***
  
x

 volt         current    current    current   
             vds        vgs        mmn.main   
    0.          1.1751p   -2.3503p   -1.1751p 
   50.00000m   -3.0517u   -2.2904p    3.0517u 
  100.00000m   -5.0797u   -2.2586p    5.0797u 
  150.00000m   -7.0033u   -2.2395p    7.0033u 
  200.00000m   -9.0262u   -2.2261p    9.0262u 
  250.00000m  -11.2146u   -2.2172p   11.2146u 
  300.00000m  -13.5930u   -2.2119p   13.5930u 
  350.00000m  -16.1676u   -2.2096p   16.1676u 
  400.00000m  -18.9351u   -2.2100p   18.9351u 
  450.00000m  -21.8850u   -2.2147p   21.8850u 
  500.00000m  -25.0022u   -2.2211p   25.0022u 
  550.00000m  -28.2677u   -2.2265p   28.2677u 
  600.00000m  -31.6607u   -2.2305p   31.6607u 
  650.00000m  -35.1589u   -2.2329p   35.1589u 
  700.00000m  -38.7401u   -2.2330p   38.7401u 
  750.00000m  -42.3826u   -2.2304p   42.3826u 
  800.00000m  -46.0665u   -2.2245p   46.0665u 
  850.00000m  -49.7737u   -2.2145p   49.7737u 
  900.00000m  -53.4888u   -2.1998p   53.4888u 
  950.00000m  -57.1989u   -2.1794p   57.1989u 
    1.00000   -60.8943u   -2.1521p   60.8943u 
    1.05000   -64.5675u   -2.1169p   64.5675u 
    1.10000   -68.2138u   -2.0723p   68.2138u 
    1.15000   -71.8307u   -2.0169p   71.8307u 
    1.20000   -75.4177u   -1.9488p   75.4177u 
    1.25000   -78.9758u   -1.8660p   78.9758u 
    1.30000   -82.5072u   -1.7662p   82.5072u 
    1.35000   -86.0149u   -1.6470p   86.0149u 
    1.40000   -89.5028u   -1.5053p   89.5028u 
    1.45000   -92.9748u   -1.3378p   92.9748u 
    1.50000   -96.4350u   -1.1409p   96.4350u 
    1.55000   -99.8875u -910.3125f   99.8875u 
    1.60000  -103.3362u -641.3515f  103.3362u 
    1.65000  -106.7844u -328.6789f  106.7844u 
    1.70000  -110.2353u   33.6977f  110.2353u 
    1.75000  -113.6915u  452.5164f  113.6915u 
    1.80000  -117.1554u  935.3496f  117.1554u 
y
 ******
 ***** nmos.sp

 ****** dc transfer curves tnom=  25.000 temp=  70.000 ******
  *** parameter 0:vgs  =   800.0000m       ***
  
x

 volt         current    current    current   
             vds        vgs        mmn.main   
    0.          3.6517p   -7.3035p   -3.6517p 
   50.00000m  -19.1396u   -7.1506p   19.1396u 
  100.00000m  -31.8346u   -7.0507p   31.8346u 
  150.00000m  -39.9094u   -7.0229p   39.9094u 
  200.00000m  -46.2785u   -7.0191p   46.2785u 
  250.00000m  -52.0206u   -7.0276p   52.0206u 
  300.00000m  -57.4739u   -7.0452p   57.4739u 
  350.00000m  -62.7728u   -7.0704p   62.7728u 
  400.00000m  -67.9799u   -7.1021p   67.9799u 
  450.00000m  -73.1273u   -7.1396p   73.1273u 
  500.00000m  -78.2324u   -7.1821p   78.2324u 
  550.00000m  -83.3048u   -7.2292p   83.3048u 
  600.00000m  -88.3499u   -7.2804p   88.3499u 
  650.00000m  -93.3706u   -7.3373p   93.3706u 
  700.00000m  -98.3681u   -7.3973p   98.3681u 
  750.00000m -103.3430u   -7.4576p  103.3430u 
  800.00000m -108.2950u   -7.5179p  108.2950u 
  850.00000m -113.2237u   -7.5776p  113.2237u 
  900.00000m -118.1285u   -7.6364p  118.1285u 
  950.00000m -123.0083u   -7.6937p  123.0083u 
    1.00000  -127.8623u   -7.7487p  127.8623u 
    1.05000  -132.6896u   -7.8008p  132.6896u 
    1.10000  -137.4891u   -7.8492p  137.4891u 
    1.15000  -142.2600u   -7.8928p  142.2600u 
    1.20000  -147.0014u   -7.9306p  147.0014u 
    1.25000  -151.7125u   -7.9614p  151.7125u 
    1.30000  -156.3926u   -7.9837p  156.3926u 
    1.35000  -161.0409u   -7.9959p  161.0409u 
    1.40000  -165.6569u   -7.9963p  165.6569u 
    1.45000  -170.2402u   -7.9829p  170.2402u 
    1.50000  -174.7904u   -7.9533p  174.7904u 
    1.55000  -179.3073u   -7.9049p  179.3073u 
    1.60000  -183.7907u   -7.8348p  183.7907u 
    1.65000  -188.2405u   -7.7396p  188.2405u 
    1.70000  -192.6570u   -7.6157p  192.6570u 
    1.75000  -197.0401u   -7.4589p  197.0401u 
    1.80000  -201.3902u   -7.2643p  201.3902u 
y
 ******
 ***** nmos.sp

 ****** dc transfer curves tnom=  25.000 temp=  70.000 ******
  *** parameter 0:vgs  =     1.0000        ***
  
x

 volt         current    current    current   
             vds        vgs        mmn.main   
    0.          9.1336p  -18.2673p   -9.1336p 
   50.00000m  -35.5530u  -17.9692p   35.5530u 
  100.00000m  -66.5643u  -17.6721p   66.5643u 
  150.00000m  -91.7331u  -17.4741p   91.7331u 
  200.00000m -108.7378u  -17.4268p  108.7378u 
  250.00000m -119.9989u  -17.4787p  119.9989u 
  300.00000m -128.9018u  -17.5717p  128.9018u 
  350.00000m -136.7618u  -17.6866p  136.7618u 
  400.00000m -144.0633u  -17.8168p  144.0633u 
  450.00000m -151.0185u  -17.9591p  151.0185u 
  500.00000m -157.7342u  -18.1115p  157.7342u 
  550.00000m -164.2699u  -18.2727p  164.2699u 
  600.00000m -170.6610u  -18.4416p  170.6610u 
  650.00000m -176.9296u  -18.6174p  176.9296u 
  700.00000m -183.0903u  -18.7993p  183.0903u 
  750.00000m -189.1527u  -18.9869p  189.1527u 
  800.00000m -195.1232u  -19.1795p  195.1232u 
  850.00000m -201.0065u  -19.3789p  201.0065u 
  900.00000m -206.8060u  -19.5824p  206.8060u 
  950.00000m -212.5239u  -19.7871p  212.5239u 
    1.00000  -218.1621u  -19.9929p  218.1621u 
    1.05000  -223.7221u  -20.1992p  223.7221u 
    1.10000  -229.2051u  -20.4055p  229.2051u 
    1.15000  -234.6123u  -20.6114p  234.6123u 
    1.20000  -239.9447u  -20.8161p  239.9447u 
    1.25000  -245.2034u  -21.0190p  245.2034u 
    1.30000  -250.3895u  -21.2193p  250.3895u 
    1.35000  -255.5041u  -21.4160p  255.5041u 
    1.40000  -260.5485u  -21.6081p  260.5485u 
    1.45000  -265.5239u  -21.7943p  265.5239u 
    1.50000  -270.4318u  -21.9733p  270.4318u 
    1.55000  -275.2736u  -22.1436p  275.2736u 
    1.60000  -280.0508u  -22.3033p  280.0508u 
    1.65000  -284.7651u  -22.4505p  284.7651u 
    1.70000  -289.4182u  -22.5829p  289.4182u 
    1.75000  -294.0118u  -22.6979p  294.0118u 
    1.80000  -298.5477u  -22.7927p  298.5477u 
y
 ******
 ***** nmos.sp

 ****** dc transfer curves tnom=  25.000 temp=  70.000 ******
  *** parameter 0:vgs  =     1.2000        ***
  
x

 volt         current    current    current   
             vds        vgs        mmn.main   
    0.         20.6045p  -41.2091p  -20.6045p 
   50.00000m  -42.7144u  -40.6216p   42.7144u 
  100.00000m  -82.6686u  -39.9849p   82.6686u 
  150.00000m -119.6444u  -39.4339p  119.6444u 
  200.00000m -153.0264u  -38.9807p  153.0264u 
  250.00000m -181.0086u  -38.6974p  181.0086u 
  300.00000m -201.2028u  -38.6686p  201.2028u 
  350.00000m -215.1264u  -38.8360p  215.1264u 
  400.00000m -225.9361u  -39.0988p  225.9361u 
  450.00000m -235.2516u  -39.4101p  235.2516u 
  500.00000m -243.7440u  -39.7518p  243.7440u 
  550.00000m -251.7170u  -40.1156p  251.7170u 
  600.00000m -259.3251u  -40.4971p  259.3251u 
  650.00000m -266.6548u  -40.8934p  266.6548u 
  700.00000m -273.7582u  -41.3027p  273.7582u 
  750.00000m -280.6685u  -41.7236p  280.6685u 
  800.00000m -287.4082u  -42.1550p  287.4082u 
  850.00000m -293.9928u  -42.5959p  293.9928u 
  900.00000m -300.4336u  -43.0458p  300.4336u 
  950.00000m -306.7392u  -43.5039p  306.7392u 
    1.00000  -312.9162u  -43.9699p  312.9162u 
    1.05000  -318.9702u  -44.4453p  318.9702u 
    1.10000  -324.9056u  -44.9275p  324.9056u 
    1.15000  -330.7264u  -45.4139p  330.7264u 
    1.20000  -336.4362u  -45.9040p  336.4362u 
    1.25000  -342.0382u  -46.3975p  342.0382u 
    1.30000  -347.5357u  -46.8940p  347.5357u 
    1.35000  -352.9317u  -47.3928p  352.9317u 
    1.40000  -358.2291u  -47.8935p  358.2291u 
    1.45000  -363.4309u  -48.3954p  363.4309u 
    1.50000  -368.5400u  -48.8977p  368.5400u 
    1.55000  -373.5593u  -49.3994p  373.5593u 
    1.60000  -378.4919u  -49.8996p  378.4919u 
    1.65000  -383.3406u  -50.3971p  383.3406u 
    1.70000  -388.1084u  -50.8906p  388.1084u 
    1.75000  -392.7983u  -51.3785p  392.7983u 
    1.80000  -397.4133u  -51.8591p  397.4133u 
y
 ******
 ***** nmos.sp

 ****** dc transfer curves tnom=  25.000 temp=  70.000 ******
  *** parameter 0:vgs  =     1.4000        ***
  
x

 volt         current    current    current   
             vds        vgs        mmn.main   
    0.         42.7744p  -85.5496p  -42.7744p 
   50.00000m  -45.9542u  -84.4032p   45.9542u 
  100.00000m  -89.9743u  -83.1251p   89.9743u 
  150.00000m -131.9863u  -81.9792p  131.9863u 
  200.00000m -171.8596u  -80.9391p  171.8596u 
  250.00000m -209.3135u  -80.0172p  209.3135u 
  300.00000m -243.6495u  -79.2638p  243.6495u 
  350.00000m -273.1972u  -78.7982p  273.1972u 
  400.00000m -295.8153u  -78.7581p  295.8153u 
  450.00000m -312.0946u  -79.0937p  312.0946u 
  500.00000m -324.6656u  -79.6411p  324.6656u 
  550.00000m -335.3057u  -80.2990p  335.3057u 
  600.00000m -344.8536u  -81.0223p  344.8536u 
  650.00000m -353.7069u  -81.7902p  353.7069u 
  700.00000m -362.0711u  -82.5920p  362.0711u 
  750.00000m -370.0616u  -83.4216p  370.0616u 
  800.00000m -377.7485u  -84.2749p  377.7485u 
  850.00000m -385.1768u  -85.1492p  385.1768u 
  900.00000m -392.3773u  -86.0426p  392.3773u 
  950.00000m -399.3716u  -86.9535p  399.3716u 
    1.00000  -406.1760u  -87.8808p  406.1760u 
    1.05000  -412.8029u  -88.8236p  412.8029u 
    1.10000  -419.2625u  -89.7810p  419.2625u 
    1.15000  -425.5630u  -90.7526p  425.5630u 
    1.20000  -431.7117u  -91.7378p  431.7117u 
    1.25000  -437.7148u  -92.7383p  437.7148u 
    1.30000  -443.5783u  -93.7515p  443.5783u 
    1.35000  -449.3074u  -94.7746p  449.3074u 
    1.40000  -454.9072u  -95.8075p  454.9072u 
    1.45000  -460.3826u  -96.8496p  460.3826u 
    1.50000  -465.7382u  -97.9006p  465.7382u 
    1.55000  -470.9787u  -98.9601p  470.9787u 
    1.60000  -476.1084u -100.0275p  476.1084u 
    1.65000  -481.1318u -101.1021p  481.1318u 
    1.70000  -486.0532u -102.1833p  486.0532u 
    1.75000  -490.8768u -103.2702p  490.8768u 
    1.80000  -495.6069u -104.3617p  495.6069u 
y
 ******
 ***** nmos.sp

 ****** dc transfer curves tnom=  25.000 temp=  70.000 ******
  *** parameter 0:vgs  =     1.6000        ***
  
x

 volt         current    current    current   
             vds        vgs        mmn.main   
    0.         83.5041p -167.0189p  -83.5041p 
   50.00000m  -47.7055u -164.8659p   47.7055u 
  100.00000m  -93.9332u -162.4288p   93.9332u 
  150.00000m -138.6463u -160.2183p  138.6463u 
  200.00000m -181.7937u -158.1695p  181.7937u 
  250.00000m -223.2945u -156.2714p  223.2945u 
  300.00000m -263.0025u -154.5343p  263.0025u 
  350.00000m -300.6142u -152.9951p  300.6142u 
  400.00000m -335.4444u -151.7445p  335.4444u 
  450.00000m -366.0379u -150.9677p  366.0379u 
  500.00000m -390.5121u -150.8834p  390.5121u 
  550.00000m -408.8462u -151.4721p  408.8462u 
  600.00000m -423.0772u -152.4921p  423.0772u 
  650.00000m -434.9885u -153.7494p  434.9885u 
  700.00000m -445.5444u -155.1452p  445.5444u 
  750.00000m -455.2296u -156.6321p  455.2296u 
  800.00000m -464.3002u -158.1855p  464.3002u 
  850.00000m -472.9018u -159.7916p  472.9018u 
  900.00000m -481.1232u -161.4420p  481.1232u 
  950.00000m -489.0220u -163.1310p  489.0220u 
    1.00000  -496.6377u -164.8549p  496.6377u 
    1.05000  -503.9984u -166.6110p  503.9984u 
    1.10000  -511.1254u -168.3970p  511.1254u 
    1.15000  -518.0355u -170.2114p  518.0355u 
    1.20000  -524.7420u -172.0531p  524.7420u 
    1.25000  -531.2564u -173.9209p  531.2564u 
    1.30000  -537.5885u -175.8142p  537.5885u 
    1.35000  -543.7471u -177.7324p  543.7471u 
    1.40000  -549.7402u -179.6749p  549.7402u 
    1.45000  -555.5751u -181.6436p  555.5751u 
    1.50000  -561.2587u -183.6357p  561.2587u 
    1.55000  -566.7977u -185.6487p  566.7977u 
    1.60000  -572.1985u -187.6823p  572.1985u 
    1.65000  -577.4670u -189.7362p  577.4670u 
    1.70000  -582.6092u -191.8101p  582.6092u 
    1.75000  -587.6309u -193.9035p  587.6309u 
    1.80000  -592.5377u -196.0161p  592.5377u 
y
 ******
 ***** nmos.sp

 ****** dc transfer curves tnom=  25.000 temp=  70.000 ******
  *** parameter 0:vgs  =     1.8000        ***
  
x

 volt         current    current    current   
             vds        vgs        mmn.main   
    0.        155.8763p -311.8114p -155.8763p 
   50.00000m  -48.7752u -307.9063p   48.7752u 
  100.00000m  -96.3591u -303.4397p   96.3591u 
  150.00000m -142.7294u -299.3658p  142.7294u 
  200.00000m -187.8590u -295.5578p  187.8590u 
  250.00000m -231.7121u -291.9828p  231.7121u 
  300.00000m -274.2361u -288.6325p  274.2361u 
  350.00000m -315.3458u -285.5144p  315.3458u 
  400.00000m -354.8878u -282.6578p  354.8878u 
  450.00000m -392.5570u -280.1323p  392.5570u 
  500.00000m -427.7131u -278.0869p  427.7131u 
  550.00000m -459.0974u -276.8026p  459.0974u 
  600.00000m -485.0540u -276.6195p  485.0540u 
  650.00000m -505.1818u -277.5833p  505.1818u 
  700.00000m -520.9675u -279.3643p  520.9675u 
  750.00000m -534.0974u -281.6250p  534.0974u 
  800.00000m -545.6185u -284.1688p  545.6185u 
  850.00000m -556.0929u -286.8949p  556.0929u 
  900.00000m -565.8266u -289.7506p  565.8266u 
  950.00000m -574.9961u -292.7062p  574.9961u 
    1.00000  -583.7098u -295.7440p  583.7098u 
    1.05000  -592.0383u -298.8528p  592.0383u 
    1.10000  -600.0303u -302.0248p  600.0303u 
    1.15000  -607.7208u -305.2549p  607.7208u 
    1.20000  -615.1365u -308.5390p  615.1365u 
    1.25000  -622.2982u -311.8744p  622.2982u 
    1.30000  -629.2230u -315.2590p  629.2230u 
    1.35000  -635.9254u -318.6910p  635.9254u 
    1.40000  -642.4179u -322.1691p  642.4179u 
    1.45000  -648.7116u -325.6925p  648.7116u 
    1.50000  -654.8167u -329.2603p  654.8167u 
    1.55000  -660.7425u -332.8720p  660.7425u 
    1.60000  -666.4978u -336.5272p  666.4978u 
    1.65000  -672.0908u -340.2277p  672.0908u 
    1.70000  -677.5295u -343.9709p  677.5295u 
    1.75000  -682.8213u -347.7544p  682.8213u 
    1.80000  -687.9735u -351.5780p  687.9735u 
y

          ***** job concluded
 ******  
 ***** nmos.sp

 ****** job statistics summary tnom=  25.000 temp=  70.000 ******
  
 ******  Machine Information  ******
 CPU:
 model name	: Intel(R) Xeon(R) Silver 4215R CPU @ 3.20GHz
 cpu MHz	: 3198.917
  
 OS:
 Linux version 3.10.0-514.6.2.el7.x86_64 (mockbuild@x86-017.build.eng.bos.redhat.com) (gcc version 4.8.5 20150623 (Red Hat 4.8.5-11) (GCC) ) #1 SMP Fri Feb 17 19:21:31 EST 2017


  ******  HSPICE Threads Information  ******

  Command Line Threads Count :     1
  Available CPU Count        :     6
  Actual Threads Count       :     1


  ****** Statistics of Ignored Elements ******
  Voltage Sources :       1

  ******  Circuit Statistics  ******
  # nodes       =       3 # elements   =       3
  # resistors   =       0 # capacitors =       0 # inductors   =       0
  # mutual_inds =       0 # vccs       =       0 # vcvs        =       0
  # cccs        =       0 # ccvs       =       0 # volt_srcs   =       2
  # curr_srcs   =       0 # diodes     =       0 # bjts        =       0
  # jfets       =       0 # mosfets    =       1 # U elements  =       0
  # T elements  =       0 # W elements =       0 # B elements  =       0
  # S elements  =       0 # P elements =       0 # va device   =       0
  # vector_srcs =       0 # N elements =       0


  ******  Runtime Statistics (seconds)  ******

  analysis           time    # points   tot. iter  conv.iter
  op point           0.00           1           0
  dc sweep           0.01         370         752
  readin             0.00
  errchk             0.01
  setup              0.00
  output             0.00


           peak memory used        284.32 megabytes
           total cpu time            0.02 seconds
           total elapsed time       57.12 seconds
           job started at     13:51:51 10/28/2024
           job ended   at     13:52:48 10/28/2024



>info:         ***** hspice job concluded
 lic: Release hspice token(s) 
 lic: total license checkout elapse time:       57.09(s)
