Using: /usr/synopsys/HSPICE/hspice/O-2018.09-1/hspice/linux64/hspice  -i 'nand.sp'
 ****** HSPICE -- O-2018.09-1 linux64 (Sep 27 2018) ******                      
  Copyright (c) 1986 - 2024 by Synopsys, Inc. All Rights Reserved.              
  This software and the associated documentation are proprietary
  to Synopsys, Inc. This software may only be used in accordance
  with the terms and conditions of a written license agreement with
  Synopsys, Inc. All other use, reproduction, or distribution of
  this software is strictly prohibited.
  Input File: nand.sp                                                           
  Command line options: /usr/synopsys/HSPICE/hspice/O-2018.09-1/hspice/linux64/hspice -i nand.sp
 lic:  
 lic: FLEXlm: SDK_11.6.9.6 
 lic: USER:   mohammed             HOSTNAME: husynposyseng 
 lic: HOSTID: 005056ba9913         PID:      17378 
 lic: Using FLEXlm license file: 
 lic: 27020@husynposyseng 
 lic: Checkout 1 hspice 
 lic: License/Maintenance for hspice will expire on 31-jan-2026/2024.09 
 lic: 1(in_use)/100(total) FLOATING license(s) on SERVER 27020@husynposyseng 
 lic:   
1****** HSPICE -- O-2018.09-1 linux64 (Sep 27 2018) ******                      
 ******  
 ***** nand.sp

 ****** circuit name directory
 circuit number to circuit name directory
   number circuitname                     definition         multiplier
        0 main circuit
        1 mmna.                           n105_hvt           1.00 
        2 mmnb.                           n105_hvt           1.00 
        3 mmpa.                           p105_hvt           1.00 
        4 mmpb.                           p105_hvt           1.00 
 ******  
 ***** nand.sp

 ****** mos   model parameters tnom=  25.000 temp=  25.000 ******
 Model file: /home/mohammed/saed32nm.lib
 Model line:         1730
 Model Name: n105_hvt  
 BSIM4 Model (Level 54)
    MOBMOD = 0
    BINUNIT = 1
    PARAMCHK = 0
    CAPMOD = 2
    DIOMOD = 1
    RDSMOD = 0
    TRNQSMOD = 0
    ACNQSMOD = 0
    RBODYMOD = 0
    RGATEMOD = 0
    PERMOD = 1
    GEOMOD = 0
    RGEOMOD = 0
    FNOIMOD = 1
    TNOIMOD = 0
    IGCMOD = 1
    IGBMOD = 1
    STIMOD = 1
    VBFWDMOD = 0
    VERSION =    4.5 
    TOXREF = 2.39e-09 
    TOXE = 2.39e-09 
    TOXP = 2.24e-09 
    TOXM = 2.39e-09 
    DTOX =      0 
    EPSROX =    3.9 
    CDSC =      0 
    CDSCB = -0.00415 
    CDSCD =      0 
    CIT =      0 
    NFACTOR =    1.9 
    XJ =  1e-07 
    VSAT = 2.141e+05 
    A0 =    1.8 
    AGS =  1.232 
    A1 =      0 
    A2 =    0.4 
    AT = 0.00122 
    KETA =      0 
    NSUB =  6e+16 
    NDEP =  5e+17 
    NSD =  1e+20 
    NGATE =  1e+23 
    GAMMA1 =      0 
    GAMMA2 =      0 
    VBX =      0 
    VBM =     -3 
    XT = 1.55e-07 
    K1 = 0.3435 
    KT1 = -0.2796 
    KT1L =  1e-11 
    KT2 = -0.0232 
    K2 = -0.03171 
    K3 =  -2.15 
    K3B =  -0.22 
    LPE0 =  1e-08 
    LPEB =  2e-08 
    DVTP0 = 1.2e-06 
    DVTP1 =      0 
    W0 =      0 
    DVT0 =  3.571 
    DVT1 =    0.8 
    DVT2 =   0.06 
    DVT0W = -0.002336 
    DVT1W = 4.278e+05 
    DVT2W =   0.15 
    DROUT =   0.06 
    DSUB =    0.9 
    VTH0 =  0.447 
    EU =   1.67 
    UA = 9.209e-10 
    UA1 = 0.003827 
    UB = 2.207e-18 
    UB1 = -0.004406 
    UC = 2.6e-10 
    UC1 =      0 
    U0 =   1900 
    UTE =  -1.91 
    VOFF = -0.1554 
    VOFFL = -2.94e-09 
    MINV = -0.168 
    FPROUT =     50 
    PDITS = 0.5299 
    PDITSD =    0.9 
    PDITSL = 2.5e+06 
    DELTA =  0.005 
    RDSW =  400.5 
    RDSWMIN =      0 
    RDWMIN =    180 
    RSWMIN =    180 
    RDW =    100 
    RSW =    100 
    PRWG =      0 
    PRWB =    0.1 
    PRT =  0.015 
    ETA0 =  0.263 
    ETAB =  -0.12 
    PCLM = 0.5198 
    PDIBLC1 = 0.00015 
    PDIBLC2 =  0.025 
    PDIBLCB =   -0.7 
    PSCBE1 =  5e+09 
    PSCBE2 =  5e-06 
    PVAG =      6 
    WR =      1 
    DWG =      0 
    DWB =      0 
    XW = 4.3e-07 
    XWREF = 4.3e-07 
    XL =  2e-09 
    XLREF =  2e-09 
    B0 =      0 
    B1 =      0 
    ALPHA0 =  4e-12 
    ALPHA1 =      0 
    AGIDL = 1.5e-10 
    BGIDL = 9.749e+08 
    CGIDL =    3.2 
    PHIN =    0.1 
    EGIDL =   0.01 
    AIGC = 0.01086 
    BIGC = 0.0009868 
    CIGC = 0.000296 
    AIGSD = 0.00889 
    BIGSD = 0.0007742 
    CIGSD = 0.01464 
    AIGBACC = 0.01356 
    BIGBACC = 0.00279 
    CIGBACC = 0.01086 
    AIGBINV = 0.01142 
    BIGBINV = 0.001212 
    CIGBINV = 0.001479 
    NIGC =  3.294 
    NIGBINV =      3 
    NIGBACC =   8.23 
    NTOX =      1 
    EIGBINV =    1.1 
    PIGCD =      1 
    POXEDGE =  1.276 
    XRCRG1 =     12 
    TNOIA =    1.5 
    TNOIB =    3.5 
    NTNOI =      1 
    XRCRG2 =      1 
    BETA0 =      2 
    IJTHDFWD =    0.1 
    IJTHSFWD =    0.1 
    IJTHDREV =    0.1 
    IJTHSREV =    0.1 
    XJBVD =      1 
    XJBVS =      1 
    BVD =     12 
    BVS =     12 
    VFB =     -1 
    GBMIN =  1e-12 
    RBDB =     50 
    RBPB =     50 
    RBSB =     50 
    RBPS =     50 
    RBPD =     50 
    CGSL = 1.765e-10 
    CGDL = 1.077e-09 
    CKAPPAS =    4.5 
    CKAPPAD =    4.5 
    CF =      0 
    CLC =      0 
    CLE =    0.6 
    DWC =      0 
    DLC = 7.834e-09 
    DLCIG =  5e-09 
    DWJ =      0 
    VFBCV =     -1 
    ACDE =    0.4 
    MOIN =      5 
    NOFF =  2.118 
    VOFFCV = -0.2843 
    DMCG =  7e-08 
    DMCI = 3.5e-08 
    DMDG =  6e-08 
    DMCGT =      0 
    XGW =  4e-08 
    XGL = -2e-09 
    RSHG =     11 
    NGCON =      1 
    TCJ = 0.0007111 
    TPB = 0.001251 
    TCJSW = 0.0005498 
    TPBSW = 0.00108 
    TCJSWG = 6.6e-05 
    TPBSWG = 0.002588 
    SK0 =      0 
    SK1 =      0 
    SK2 =      0 
    SL =  2e-06 
    SW =  2e-06 
    K =      0 
    LNFACTOR =   0.05 
    LLPE0 = 2.5e-09 
    LUTE = 0.03886 
    LBGIDL = -5e+06 
    LAIGC = -7.7e-06 
    LNOFF =   0.08 
    WU0 =  56.01 
    PVSAT =  223.3 
    TNOM =  298.1 
    CGSO = 5.1e-11 
    CGDO = 5.1e-11 
    CGBO =  1e-12 
    XPART =      0 
    RSH =     12 
    JSS =  1e-06 
    JSWS = 1.484e-13 
    JSWGS = 7.172e-13 
    PBS = 0.8977 
    MJS = 0.4077 
    PBSWS =      1 
    MJSWS = 0.5128 
    CJS = 0.1935 
    CJSWS = 8.2e-11 
    NJS =  1.104 
    PBSWGS =  1.442 
    MJSWGS =   0.98 
    CJSWGS = 3.2e-10 
    XTIS =   -0.6 
    JSD =  1e-06 
    JSWD = 1.484e-13 
    JSWGD = 7.172e-13 
    PBD = 0.8977 
    MJD = 0.4077 
    PBSWD =      1 
    MJSWD = 0.5128 
    CJD = 0.1935 
    CJSWD = 8.2e-11 
    NJD =  1.104 
    PBSWGD =  1.442 
    MJSWGD =   0.98 
    CJSWGD = 3.2e-10 
    XTID =   -0.6 
    LMLT =      1 
    WMLT =      1 
    LINT = 1.934e-10 
    LL =      0 
    LLC =      0 
    LLN =      1 
    LW =      0 
    LWC =      0 
    LWN =      1 
    LWL =      0 
    LWLC =      0 
    LMIN =      0 
    LMAX =      1 
    WINT =      0 
    WL =      0 
    WLC =      0 
    WLN =      1 
    WW =      0 
    WWC =      0 
    WWN =      1 
    WWL =      0 
    WWLC =      0 
    WMIN =      0 
    WMAX =      1 
    NOIA = 6.72e+41 
    NOIB = 5.413e+23 
    NOIC = 2.288e+09 
    EM = 4.1e+07 
    EF =   0.95 
    AF =      1 
    KF = 1.5e-27 
    TRS =      0 
    TRD =      0 
    TEMPMOD  =      1 
    LAMBDA   =      0 
    VTL      =  2e+05 m/s
    LC       =  5e-09 
    XN       =      3 
    LLAMBDA  =      0 
    LVTL     =      0 
    LXN      =      0 
    WLAMBDA  =      0 
    WVTL     =      0 
    WXN      =      0 
    PLAMBDA  =      0 
    PVTL     =      0 
    PXN      =      0 
    RNOIA    =  0.577 
    RNOIB    = 0.5164 
    SAREF(SA0) = 4.48e-07 m
    SBREF(SB0) = 4.48e-07 m
    WLOD     =      0 m
    KU0      =      0 1/m
    KVSAT    =      0 
    KVTH0    = 6.5e-10 m
    TKU0     =      0 
    LLODKU0  =      0 
    WLODKU0  =      0 
    LLODVTH  =      0 
    WLODVTH  =      0 
    LKU0     =      0 
    WKU0     =      0 
    PKU0     =      0 
    LKVTH0   =      0 
    WKVTH0   =      0 
    PKVTH0   =      0 
    STK2     =      0 
    LODK2    =      1 
    STETA0   =      0 
    LODETA0  =      1 
    LXRCRG1  =      0 
    WXRCRG1  =      0 
    PXRCRG1  =      0 
    LXRCRG2  =      0 
    WXRCRG2  =      0 
    PXRCRG2  =      0 
     *** UCB's BSIM4.4.0 new diode model is activated. ***
    *** UCB's Diode Model Parameters ***
    JTSS         =  5e-06 
    JTSSWS       = 1.2e-10 
    JTSSWGS      = 1.634e-08 
    JTSD         =  5e-06 
    JTSSWD       = 1.2e-10 
    JTSSWGD      = 1.634e-08 
    NJTS         =     20 
    NJTSSW       =     60 
    NJTSSWG      =  7.854 
    XTSS         =   0.02 
    XTSSWS       = 0.5842 
    XTSSWGS      =   0.09 
    XTSD         =   0.02 
    XTSSWD       = 0.5842 
    XTSSWGD      =   0.09 
    TNJTS        =      0 
    TNJTSSW      =    0.8 
    TNJTSSWG     =   0.04 
    VFBSDOFF     =      0 
    LVFBSDOFF    =      0 
    WVFBSDOFF    =      0 
    PVFBSDOFF    =      0 
    LINTNOI      =      0 
    VTSS         =     20 
    VTSD         =     20 
    VTSSWS       =     10 
    VTSSWD       =     10 
    VTSSWGS      =   10.8 
    VTSSWGD      =   10.8 
    TTDIOMOD     =      1 
     *** UCB's BSIM4.5.0 new model is activated. ***
    UD         =      0 
    UD1        =      0 
    UP         =   0.77 
    LP         = 9.65e-08 
    TVOFF      = 0.000366 
    TVFBSDOFF  =      0 
    RBPS0      =     50 
    RBPSL      =      0 
    RBPSW      =      0 
    RBPSNF     =      0 
    RBPD0      =     50 
    RBPDL      =      0 
    RBPDW      =      0 
    RBPDNF     =      0 
    RBPBX0     =    100 
    RBPBXL     =      0 
    RBPBXW     =      0 
    RBPBXNF    =      0 
    RBPBY0     =    100 
    RBPBYL     =      0 
    RBPBYW     =      0 
    RBPBYNF    =      0 
    RBSBX0     =    100 
    RBSBY0     =    100 
    RBDBX0     =    100 
    RBDBY0     =    100 
    RBSDBXL    =      0 
    RBSDBXW    =      0 
    RBSDBXNF   =      0 
    RBSDBYL    =      0 
    RBSDBYW    =      0 
    RBSDBYNF   =      0 
    LUD        =      0 
    LUD1       =      0 
    LUP        =      0 
    LLP        =      0 
    LTVOFF     =      0 
    LTVFBSDOFF =      0 
    WUD        =      0 
    WUD1       =      0 
    WUP        =      0 
    WLP        =      0 
    WTVOFF     =      0 
    WTVFBSDOFF =      0 
    PUD        =      0 
    PUD1       =      0 
    PUP        =      0 
    PLP        =      0 
    PTVOFF     =      0 
    PTVFBSDOFF =      0 
    WEB        = 7.5e+05 
    WEC        = -1e+05 
    KVTH0WE    = 6.361e-07 
    K2WE       =      0 
    KU0WE      =      0 
    SCREF      = 2.5e-06 
    WPEMOD     =      1 
    LKVTH0WE   =      0 
    LK2WE      =      0 
    LKU0WE     =      0 
    WKVTH0WE   =      0 
    WK2WE      =      0 
    WKU0WE     =      0 
    PKVTH0WE   =      0 
    PK2WE      =      0 
    PKU0WE     =      0 
 Model file: /home/mohammed/saed32nm.lib
 Model line:         1860
 Model Name: p105_hvt  
 BSIM4 Model (Level 54)
    MOBMOD = 0
    BINUNIT = 1
    PARAMCHK = 0
    CAPMOD = 2
    DIOMOD = 1
    RDSMOD = 0
    TRNQSMOD = 0
    ACNQSMOD = 0
    RBODYMOD = 0
    RGATEMOD = 0
    PERMOD = 1
    GEOMOD = 0
    RGEOMOD = 0
    FNOIMOD = 1
    TNOIMOD = 0
    IGCMOD = 1
    IGBMOD = 1
    STIMOD = 1
    VBFWDMOD = 0
    VERSION =    4.5 
    TOXREF = 2.62e-09 
    TOXE = 2.62e-09 
    TOXP = 2.3e-09 
    TOXM = 2.62e-09 
    DTOX =      0 
    EPSROX =    3.9 
    CDSC = 0.02157 
    CDSCB =  0.001 
    CDSCD = 0.001494 
    CIT =      0 
    NFACTOR =      1 
    XJ =  1e-07 
    VSAT = 1.606e+05 
    A0 =    4.3 
    AGS =  1.048 
    A1 =      0 
    A2 = 0.3157 
    AT = 0.0017 
    KETA =      0 
    NSUB =  6e+16 
    NDEP = 1.7e+17 
    NSD =  1e+20 
    NGATE = 2.452e+20 
    GAMMA1 =      0 
    GAMMA2 =      0 
    VBX =      0 
    VBM =     -3 
    XT = 1.55e-07 
    K1 =   0.37 
    KT1 = -0.327 
    KT1L = -2.7e-09 
    KT2 = -0.035 
    K2 = -0.02479 
    K3 = -1.284 
    K3B =   0.52 
    LPE0 = 2.05e-08 
    LPEB =  1e-08 
    DVTP0 = 8.467e-06 
    DVTP1 =  3.222 
    W0 =  6e-09 
    DVT0 = 0.6336 
    DVT1 =  1.158 
    DVT2 =   0.12 
    DVT0W = -0.0008095 
    DVT1W = 1.854e+06 
    DVT2W =      1 
    DROUT =   0.56 
    DSUB = 0.4346 
    VTH0 = -0.3406 
    EU =      1 
    UA = 8.24e-13 
    UA1 = 0.0001027 
    UB = 1.714e-18 
    UB1 = -5e-05 
    UC =  1e-10 
    UC1 = -0.000605 
    U0 =    291 
    UTE =  -1.72 
    VOFF =  -0.13 
    VOFFL = -3.507e-09 
    MINV =    0.5 
    FPROUT =     60 
    PDITS = 0.8644 
    PDITSD = 0.7248 
    PDITSL =  1e+06 
    DELTA =   0.01 
    RDSW =    160 
    RDSWMIN =      0 
    RDWMIN =      0 
    RSWMIN =      0 
    RDW =    100 
    RSW =    100 
    PRWG =      0 
    PRWB =      0 
    PRT =  0.009 
    ETA0 = 0.04493 
    ETAB = -0.04419 
    PCLM = 0.06233 
    PDIBLC1 = 1.014e-07 
    PDIBLC2 = 1.5e-05 
    PDIBLCB =      0 
    PSCBE1 =  5e+09 
    PSCBE2 =  5e-06 
    PVAG =      0 
    WR =      1 
    DWG =      0 
    DWB =      0 
    XW =      0 
    XWREF =      0 
    XL = 2.3e-09 
    XLREF = 2.3e-09 
    B0 =      0 
    B1 =      0 
    ALPHA0 = 8.656e-12 
    ALPHA1 =      0 
    AGIDL = 1.19e-11 
    BGIDL = 3.415e+08 
    CGIDL =     15 
    PHIN =      0 
    EGIDL =  1e-08 
    AIGC = 0.007152 
    BIGC = 0.001215 
    CIGC =    0.1 
    AIGSD = 0.004214 
    BIGSD =      0 
    CIGSD =      0 
    AIGBACC = 0.01249 
    BIGBACC = 0.00233 
    CIGBACC = -1e-10 
    AIGBINV = 0.01311 
    BIGBINV = 0.002519 
    CIGBINV = 0.0005126 
    NIGC =   1.77 
    NIGBINV =      1 
    NIGBACC =  2.856 
    NTOX =      1 
    EIGBINV = 1.726e-06 
    PIGCD =      1 
    POXEDGE =  1.467 
    XRCRG1 =     12 
    TNOIA =    1.5 
    TNOIB =    3.5 
    NTNOI =      1 
    XRCRG2 =      1 
    BETA0 =      6 
    IJTHDFWD =    0.1 
    IJTHSFWD =    0.1 
    IJTHDREV =    0.1 
    IJTHSREV =    0.1 
    XJBVD =      1 
    XJBVS =      1 
    BVD =     12 
    BVS =     12 
    VFB =     -1 
    GBMIN =  1e-12 
    RBDB =     50 
    RBPB =     50 
    RBSB =     50 
    RBPS =     50 
    RBPD =     50 
    CGSL = 1.121e-10 
    CGDL = 1.121e-10 
    CKAPPAS =  2.973 
    CKAPPAD =  2.973 
    CF =      0 
    CLC =      0 
    CLE =    0.6 
    DWC =      0 
    DLC = 5.028e-09 
    DLCIG =  7e-09 
    DWJ =      0 
    VFBCV =     -1 
    ACDE =    0.5 
    MOIN =      5 
    NOFF =  2.401 
    VOFFCV = -0.075 
    DMCG =  7e-08 
    DMCI = 3.5e-08 
    DMDG =  6e-08 
    DMCGT =      0 
    XGW =  4e-08 
    XGL = -2e-09 
    RSHG =     11 
    NGCON =      1 
    TCJ = 0.0008822 
    TPB = 0.001392 
    TCJSW = 0.0007589 
    TPBSW = 0.0009973 
    TCJSWG = 0.0007282 
    TPBSWG = 0.0003417 
    SK0 =      0 
    SK1 =      0 
    SK2 =      0 
    SL =  2e-06 
    SW =  2e-06 
    K =      0 
    LNFACTOR =  0.045 
    LLPE0 = 2.3e-09 
    LDVT0 = 0.09729 
    LUTE = 0.0425 
    LMINV = -0.026 
    LETAB = 0.001264 
    LAIGC = -1.69e-05 
    LNOFF = 0.05705 
    LVOFFCV = -0.0034 
    WU0 =  4.544 
    PVSAT =   10.2 
    PDSUB = 0.0003 
    TNOM =  298.1 
    CGSO = 6.259e-11 
    CGDO = 6.259e-11 
    CGBO =      0 
    XPART =      0 
    RSH =      9 
    JSS = 8.942e-07 
    JSWS = 2.348e-13 
    JSWGS = 2.339e-13 
    PBS = 0.6893 
    MJS = 0.3146 
    PBSWS = 0.2669 
    MJSWS = 0.1452 
    CJS = 0.1935 
    CJSWS = 6.5e-11 
    NJS =  1.098 
    PBSWGS =   0.65 
    MJSWGS =  0.564 
    CJSWGS =  3e-10 
    XTIS =      3 
    JSD = 8.942e-07 
    JSWD = 2.348e-13 
    JSWGD = 2.339e-13 
    PBD = 0.6893 
    MJD = 0.3146 
    PBSWD = 0.2669 
    MJSWD = 0.1452 
    CJD = 0.1935 
    CJSWD = 6.5e-11 
    NJD =  1.098 
    PBSWGD =   0.65 
    MJSWGD =  0.564 
    CJSWGD =  3e-10 
    XTID =      3 
    LMLT =      1 
    WMLT =      1 
    LINT =      0 
    LL =      0 
    LLC =      0 
    LLN =      1 
    LW =      0 
    LWC =      0 
    LWN =      1 
    LWL =      0 
    LWLC =      0 
    LMIN =      0 
    LMAX =      1 
    WINT =      0 
    WL =      0 
    WLC =      0 
    WLN =      1 
    WW =      0 
    WWC =      0 
    WWN =      1 
    WWL =      0 
    WWLC =      0 
    WMIN =      0 
    WMAX =      1 
    NOIA = 1.077e+42 
    NOIB = 4.77e+22 
    NOIC = 1.699e+10 
    EM = 4.1e+07 
    EF =   1.04 
    AF =      1 
    KF =      0 
    TRS =      0 
    TRD =      0 
    TEMPMOD  =      1 
    LAMBDA   =      0 
    VTL      =  2e+05 m/s
    LC       =  5e-09 
    XN       =      3 
    LLAMBDA  =      0 
    LVTL     =      0 
    LXN      =      0 
    WLAMBDA  =      0 
    WVTL     =      0 
    WXN      =      0 
    PLAMBDA  =      0 
    PVTL     =      0 
    PXN      =      0 
    RNOIA    =  0.577 
    RNOIB    = 0.5164 
    SAREF(SA0) = 4.48e-07 m
    SBREF(SB0) = 4.48e-07 m
    WLOD     =      0 m
    KU0      = -1.31e-09 1/m
    KVSAT    =      0 
    KVTH0    = -1.18e-09 m
    TKU0     =      0 
    LLODKU0  =      0 
    WLODKU0  =      0 
    LLODVTH  =      0 
    WLODVTH  =      0 
    LKU0     =      0 
    WKU0     =      0 
    PKU0     =      0 
    LKVTH0   =      0 
    WKVTH0   =      0 
    PKVTH0   =      0 
    STK2     =      0 
    LODK2    =      1 
    STETA0   =      0 
    LODETA0  =      1 
    LXRCRG1  =      0 
    WXRCRG1  =      0 
    PXRCRG1  =      0 
    LXRCRG2  =      0 
    WXRCRG2  =      0 
    PXRCRG2  =      0 
     *** UCB's BSIM4.4.0 new diode model is activated. ***
    *** UCB's Diode Model Parameters ***
    JTSS         = 0.0017 
    JTSSWS       =  1e-11 
    JTSSWGS      = 7.788e-10 
    JTSD         = 0.0017 
    JTSSWD       =  1e-11 
    JTSSWGD      = 7.788e-10 
    NJTS         =     20 
    NJTSSW       =     20 
    NJTSSWG      =  2.887 
    XTSS         =   0.02 
    XTSSWS       =   0.02 
    XTSSWGS      = 0.08619 
    XTSD         =   0.02 
    XTSSWD       =   0.02 
    XTSSWGD      = 0.08619 
    TNJTS        =      0 
    TNJTSSW      =      0 
    TNJTSSWG     =   0.32 
    VFBSDOFF     =      0 
    LVFBSDOFF    =      0 
    WVFBSDOFF    =      0 
    PVFBSDOFF    =      0 
    LINTNOI      =      0 
    VTSS         =     10 
    VTSD         =     10 
    VTSSWS       =     10 
    VTSSWD       =     10 
    VTSSWGS      =      1 
    VTSSWGD      =      1 
    TTDIOMOD     =      1 
     *** UCB's BSIM4.5.0 new model is activated. ***
    UD         =      0 
    UD1        =      0 
    UP         =  0.262 
    LP         = 3.199e-07 
    TVOFF      =      0 
    TVFBSDOFF  =      0 
    RBPS0      =     50 
    RBPSL      =      0 
    RBPSW      =      0 
    RBPSNF     =      0 
    RBPD0      =     50 
    RBPDL      =      0 
    RBPDW      =      0 
    RBPDNF     =      0 
    RBPBX0     =    100 
    RBPBXL     =      0 
    RBPBXW     =      0 
    RBPBXNF    =      0 
    RBPBY0     =    100 
    RBPBYL     =      0 
    RBPBYW     =      0 
    RBPBYNF    =      0 
    RBSBX0     =    100 
    RBSBY0     =    100 
    RBDBX0     =    100 
    RBDBY0     =    100 
    RBSDBXL    =      0 
    RBSDBXW    =      0 
    RBSDBXNF   =      0 
    RBSDBYL    =      0 
    RBSDBYW    =      0 
    RBSDBYNF   =      0 
    LUD        =      0 
    LUD1       =      0 
    LUP        =      0 
    LLP        =      0 
    LTVOFF     =      0 
    LTVFBSDOFF =      0 
    WUD        =      0 
    WUD1       =      0 
    WUP        =      0 
    WLP        =      0 
    WTVOFF     =      0 
    WTVFBSDOFF =      0 
    PUD        =      0 
    PUD1       =      0 
    PUP        =      0 
    PLP        =      0 
    PTVOFF     =      0 
    PTVFBSDOFF =      0 
    WEB        = 6.7e+05 
    WEC        = -7e+05 
    KVTH0WE    = -9.23e-07 
    K2WE       =      0 
    KU0WE      =      0 
    SCREF      = 2.5e-06 
    WPEMOD     =      1 
    LKVTH0WE   =      0 
    LK2WE      =      0 
    LKU0WE     =      0 
    WKVTH0WE   =      0 
    WK2WE      =      0 
    WKU0WE     =      0 
    PKVTH0WE   =      0 
    PK2WE      =      0 
    PKU0WE     =      0 
  **info** (nand.sp:14) DC voltage reset to initial transient source value in source 0:va. new dc=0.0000D+00
  **warning** (nand.sp:30) Both nodes of element vgnd are connected together; Line ignored.
  
      

Element variations(Local):   element              parameter
 **info** set option symb=1 internally to help for convergence.
 *****************************************************************
 ******  option summary
 ******
 runlvl  = 3         bypass  = 2.0000    
  Opening plot unit= 15
 file=nand.pa0

 **info** dc convergence successful at Newton-Raphson method 
 ******  
 ***** nand.sp

 ****** operating point information tnom=  25.000 temp=  70.000 ******
 ****** operating point status is voltage   simulation time is     0.     
    node    =voltage      node    =voltage      node    =voltage

 +0:a       =   0.      0:b       =   0.      0:n1      = 299.6629m
 +0:out     =   1.8000  0:vdd     =   1.8000 

 ******
 ***** nand.sp

 ****** transient analysis tnom=  25.000 temp=  70.000 ******
x

 time         voltage    voltage    voltage   
             a          b          out        
    0.          0.         0.         1.8000  
  100.00000f    0.         0.         1.8000  
  200.00000f    0.         0.         1.8000  
  300.00000f    0.         0.         1.8000  
  400.00000f    0.         0.         1.8000  
  500.00000f    0.         0.         1.8000  
  600.00000f    0.         0.         1.8000  
  700.00000f    0.         0.         1.8000  
  800.00000f    0.         0.         1.8000  
  900.00000f    0.         0.         1.8000  
    1.00000p    0.         0.         1.8000  
    1.10000p    0.         0.         1.8000  
    1.20000p    0.         0.         1.8000  
    1.30000p    0.         0.         1.8000  
    1.40000p    0.         0.         1.8000  
    1.50000p    0.         0.         1.8000  
    1.60000p    0.         0.         1.8000  
    1.70000p    0.         0.         1.8000  
    1.80000p    0.         0.         1.8000  
    1.90000p    0.         0.         1.8000  
    2.00000p    0.         0.         1.8000  
    2.10000p    0.         0.         1.8000  
    2.20000p    0.         0.         1.8000  
    2.30000p    0.         0.         1.8000  
    2.40000p    0.         0.         1.8000  
    2.50000p    0.         0.         1.8000  
    2.60000p    0.         0.         1.8000  
    2.70000p    0.         0.         1.8000  
    2.80000p    0.         0.         1.8000  
    2.90000p    0.         0.         1.8000  
    3.00000p    0.         0.         1.8000  
    3.10000p    0.         0.         1.8000  
    3.20000p    0.         0.         1.8000  
    3.30000p    0.         0.         1.8000  
    3.40000p    0.         0.         1.8000  
    3.50000p    0.         0.         1.8000  
    3.60000p    0.         0.         1.8000  
    3.70000p    0.         0.         1.8000  
    3.80000p    0.         0.         1.8000  
    3.90000p    0.         0.         1.8000  
    4.00000p    0.         0.         1.8000  
    4.10000p    0.         0.         1.8000  
    4.20000p    0.         0.         1.8000  
    4.30000p    0.         0.         1.8000  
    4.40000p    0.         0.         1.8000  
    4.50000p    0.         0.         1.8000  
    4.60000p    0.         0.         1.8000  
    4.70000p    0.         0.         1.8000  
    4.80000p    0.         0.         1.8000  
    4.90000p    0.         0.         1.8000  
    5.00000p    0.         0.         1.8000  
    5.10000p    0.         0.         1.8000  
    5.20000p    0.         0.         1.8000  
    5.30000p    0.         0.         1.8000  
    5.40000p    0.         0.         1.8000  
    5.50000p    0.         0.         1.8000  
    5.60000p    0.         0.         1.8000  
    5.70000p    0.         0.         1.8000  
    5.80000p    0.         0.         1.8000  
    5.90000p    0.         0.         1.8000  
    6.00000p    0.         0.         1.8000  
    6.10000p    0.         0.         1.8000  
    6.20000p    0.         0.         1.8000  
    6.30000p    0.         0.         1.8000  
    6.40000p    0.         0.         1.8000  
    6.50000p    0.         0.         1.8000  
    6.60000p    0.         0.         1.8000  
    6.70000p    0.         0.         1.8000  
    6.80000p    0.         0.         1.8000  
    6.90000p    0.         0.         1.8000  
    7.00000p    0.         0.         1.8000  
    7.10000p    0.         0.         1.8000  
    7.20000p    0.         0.         1.8000  
    7.30000p    0.         0.         1.8000  
    7.40000p    0.         0.         1.8000  
    7.50000p    0.         0.         1.8000  
    7.60000p    0.         0.         1.8000  
    7.70000p    0.         0.         1.8000  
    7.80000p    0.         0.         1.8000  
    7.90000p    0.         0.         1.8000  
    8.00000p    0.         0.         1.8000  
    8.10000p    0.         0.         1.8000  
    8.20000p    0.         0.         1.8000  
    8.30000p    0.         0.         1.8000  
    8.40000p    0.         0.         1.8000  
    8.50000p    0.         0.         1.8000  
    8.60000p    0.         0.         1.8000  
    8.70000p    0.         0.         1.8000  
    8.80000p    0.         0.         1.8000  
    8.90000p    0.         0.         1.8000  
    9.00000p    0.         0.         1.8000  
    9.10000p    0.         0.         1.8000  
    9.20000p    0.         0.         1.8000  
    9.30000p    0.         0.         1.8000  
    9.40000p    0.         0.         1.8000  
    9.50000p    0.         0.         1.8000  
    9.60000p    0.         0.         1.8000  
    9.70000p    0.         0.         1.8000  
    9.80000p    0.         0.         1.8000  
    9.90000p    0.         0.         1.8000  
   10.00000p    0.         0.         1.8000  
   10.10000p    0.         0.         1.8000  
   10.20000p    0.         0.         1.8000  
   10.30000p    0.         0.         1.8000  
   10.40000p    0.         0.         1.8000  
   10.50000p    0.         0.         1.8000  
   10.60000p    0.         0.         1.8000  
   10.70000p    0.         0.         1.8000  
   10.80000p    0.         0.         1.8000  
   10.90000p    0.         0.         1.8000  
   11.00000p    0.         0.         1.8000  
   11.10000p    0.         0.         1.8000  
   11.20000p    0.         0.         1.8000  
   11.30000p    0.         0.         1.8000  
   11.40000p    0.         0.         1.8000  
   11.50000p    0.         0.         1.8000  
   11.60000p    0.         0.         1.8000  
   11.70000p    0.         0.         1.8000  
   11.80000p    0.         0.         1.8000  
   11.90000p    0.         0.         1.8000  
   12.00000p    0.         0.         1.8000  
   12.10000p    0.         0.         1.8000  
   12.20000p    0.         0.         1.8000  
   12.30000p    0.         0.         1.8000  
   12.40000p    0.         0.         1.8000  
   12.50000p    0.         0.         1.8000  
   12.60000p    0.         0.         1.8000  
   12.70000p    0.         0.         1.8000  
   12.80000p    0.         0.         1.8000  
   12.90000p    0.         0.         1.8000  
   13.00000p    0.         0.         1.8000  
   13.10000p    0.         0.         1.8000  
   13.20000p    0.         0.         1.8000  
   13.30000p    0.         0.         1.8000  
   13.40000p    0.         0.         1.8000  
   13.50000p    0.         0.         1.8000  
   13.60000p    0.         0.         1.8000  
   13.70000p    0.         0.         1.8000  
   13.80000p    0.         0.         1.8000  
   13.90000p    0.         0.         1.8000  
   14.00000p    0.         0.         1.8000  
   14.10000p    0.         0.         1.8000  
   14.20000p    0.         0.         1.8000  
   14.30000p    0.         0.         1.8000  
   14.40000p    0.         0.         1.8000  
   14.50000p    0.         0.         1.8000  
   14.60000p    0.         0.         1.8000  
   14.70000p    0.         0.         1.8000  
   14.80000p    0.         0.         1.8000  
   14.90000p    0.         0.         1.8000  
   15.00000p    0.         0.         1.8000  
   15.10000p    0.         0.         1.8000  
   15.20000p    0.         0.         1.8000  
   15.30000p    0.         0.         1.8000  
   15.40000p    0.         0.         1.8000  
   15.50000p    0.         0.         1.8000  
   15.60000p    0.         0.         1.8000  
   15.70000p    0.         0.         1.8000  
   15.80000p    0.         0.         1.8000  
   15.90000p    0.         0.         1.8000  
   16.00000p    0.         0.         1.8000  
   16.10000p    0.         0.         1.8000  
   16.20000p    0.         0.         1.8000  
   16.30000p    0.         0.         1.8000  
   16.40000p    0.         0.         1.8000  
   16.50000p    0.         0.         1.8000  
   16.60000p    0.         0.         1.8000  
   16.70000p    0.         0.         1.8000  
   16.80000p    0.         0.         1.8000  
   16.90000p    0.         0.         1.8000  
   17.00000p    0.         0.         1.8000  
   17.10000p    0.         0.         1.8000  
   17.20000p    0.         0.         1.8000  
   17.30000p    0.         0.         1.8000  
   17.40000p    0.         0.         1.8000  
   17.50000p    0.         0.         1.8000  
   17.60000p    0.         0.         1.8000  
   17.70000p    0.         0.         1.8000  
   17.80000p    0.         0.         1.8000  
   17.90000p    0.         0.         1.8000  
   18.00000p    0.         0.         1.8000  
   18.10000p    0.         0.         1.8000  
   18.20000p    0.         0.         1.8000  
   18.30000p    0.         0.         1.8000  
   18.40000p    0.         0.         1.8000  
   18.50000p    0.         0.         1.8000  
   18.60000p    0.         0.         1.8000  
   18.70000p    0.         0.         1.8000  
   18.80000p    0.         0.         1.8000  
   18.90000p    0.         0.         1.8000  
   19.00000p    0.         0.         1.8000  
   19.10000p    0.         0.         1.8000  
   19.20000p    0.         0.         1.8000  
   19.30000p    0.         0.         1.8000  
   19.40000p    0.         0.         1.8000  
   19.50000p    0.         0.         1.8000  
   19.60000p    0.         0.         1.8000  
   19.70000p    0.         0.         1.8000  
   19.80000p    0.         0.         1.8000  
   19.90000p    0.         0.         1.8000  
   20.00000p    0.         0.         1.8000  
   20.10000p    0.         0.         1.8000  
   20.20000p    0.         0.         1.8000  
   20.30000p    0.         0.         1.8000  
   20.40000p    0.         0.         1.8000  
   20.50000p    0.         0.         1.8000  
   20.60000p    0.         0.         1.8000  
   20.70000p    0.         0.         1.8000  
   20.80000p    0.         0.         1.8000  
   20.90000p    0.         0.         1.8000  
   21.00000p    0.         0.         1.8000  
   21.10000p    0.         0.         1.8000  
   21.20000p    0.         0.         1.8000  
   21.30000p    0.         0.         1.8000  
   21.40000p    0.         0.         1.8000  
   21.50000p    0.         0.         1.8000  
   21.60000p    0.         0.         1.8000  
   21.70000p    0.         0.         1.8000  
   21.80000p    0.         0.         1.8000  
   21.90000p    0.         0.         1.8000  
   22.00000p    0.         0.         1.8000  
   22.10000p    0.         0.         1.8000  
   22.20000p    0.         0.         1.8000  
   22.30000p    0.         0.         1.8000  
   22.40000p    0.         0.         1.8000  
   22.50000p    0.         0.         1.8000  
   22.60000p    0.         0.         1.8000  
   22.70000p    0.         0.         1.8000  
   22.80000p    0.         0.         1.8000  
   22.90000p    0.         0.         1.8000  
   23.00000p    0.         0.         1.8000  
   23.10000p    0.         0.         1.8000  
   23.20000p    0.         0.         1.8000  
   23.30000p    0.         0.         1.8000  
   23.40000p    0.         0.         1.8000  
   23.50000p    0.         0.         1.8000  
   23.60000p    0.         0.         1.8000  
   23.70000p    0.         0.         1.8000  
   23.80000p    0.         0.         1.8000  
   23.90000p    0.         0.         1.8000  
   24.00000p    0.         0.         1.8000  
   24.10000p    0.         0.         1.8000  
   24.20000p    0.         0.         1.8000  
   24.30000p    0.         0.         1.8000  
   24.40000p    0.         0.         1.8000  
   24.50000p    0.         0.         1.8000  
   24.60000p    0.         0.         1.8000  
   24.70000p    0.         0.         1.8000  
   24.80000p    0.         0.         1.8000  
   24.90000p    0.         0.         1.8000  
   25.00000p    0.         0.         1.8000  
   25.10000p    0.         0.         1.8000  
   25.20000p    0.         0.         1.8000  
   25.30000p    0.         0.         1.8000  
   25.40000p    0.         0.         1.8000  
   25.50000p    0.         0.         1.8000  
   25.60000p    0.         0.         1.8000  
   25.70000p    0.         0.         1.8000  
   25.80000p    0.         0.         1.8000  
   25.90000p    0.         0.         1.8000  
   26.00000p    0.         0.         1.8000  
   26.10000p    0.         0.         1.8000  
   26.20000p    0.         0.         1.8000  
   26.30000p    0.         0.         1.8000  
   26.40000p    0.         0.         1.8000  
   26.50000p    0.         0.         1.8000  
   26.60000p    0.         0.         1.8000  
   26.70000p    0.         0.         1.8000  
   26.80000p    0.         0.         1.8000  
   26.90000p    0.         0.         1.8000  
   27.00000p    0.         0.         1.8000  
   27.10000p    0.         0.         1.8000  
   27.20000p    0.         0.         1.8000  
   27.30000p    0.         0.         1.8000  
   27.40000p    0.         0.         1.8000  
   27.50000p    0.         0.         1.8000  
   27.60000p    0.         0.         1.8000  
   27.70000p    0.         0.         1.8000  
   27.80000p    0.         0.         1.8000  
   27.90000p    0.         0.         1.8000  
   28.00000p    0.         0.         1.8000  
   28.10000p    0.         0.         1.8000  
   28.20000p    0.         0.         1.8000  
   28.30000p    0.         0.         1.8000  
   28.40000p    0.         0.         1.8000  
   28.50000p    0.         0.         1.8000  
   28.60000p    0.         0.         1.8000  
   28.70000p    0.         0.         1.8000  
   28.80000p    0.         0.         1.8000  
   28.90000p    0.         0.         1.8000  
   29.00000p    0.         0.         1.8000  
   29.10000p    0.         0.         1.8000  
   29.20000p    0.         0.         1.8000  
   29.30000p    0.         0.         1.8000  
   29.40000p    0.         0.         1.8000  
   29.50000p    0.         0.         1.8000  
   29.60000p    0.         0.         1.8000  
   29.70000p    0.         0.         1.8000  
   29.80000p    0.         0.         1.8000  
   29.90000p    0.         0.         1.8000  
   30.00000p    0.         0.         1.8000  
   30.10000p    0.         0.         1.8000  
   30.20000p    0.         0.         1.8000  
   30.30000p    0.         0.         1.8000  
   30.40000p    0.         0.         1.8000  
   30.50000p    0.         0.         1.8000  
   30.60000p    0.         0.         1.8000  
   30.70000p    0.         0.         1.8000  
   30.80000p    0.         0.         1.8000  
   30.90000p    0.         0.         1.8000  
   31.00000p    0.         0.         1.8000  
   31.10000p    0.         0.         1.8000  
   31.20000p    0.         0.         1.8000  
   31.30000p    0.         0.         1.8000  
   31.40000p    0.         0.         1.8000  
   31.50000p    0.         0.         1.8000  
   31.60000p    0.         0.         1.8000  
   31.70000p    0.         0.         1.8000  
   31.80000p    0.         0.         1.8000  
   31.90000p    0.         0.         1.8000  
   32.00000p    0.         0.         1.8000  
   32.10000p    0.         0.         1.8000  
   32.20000p    0.         0.         1.8000  
   32.30000p    0.         0.         1.8000  
   32.40000p    0.         0.         1.8000  
   32.50000p    0.         0.         1.8000  
   32.60000p    0.         0.         1.8000  
   32.70000p    0.         0.         1.8000  
   32.80000p    0.         0.         1.8000  
   32.90000p    0.         0.         1.8000  
   33.00000p    0.         0.         1.8000  
   33.10000p    0.         0.         1.8000  
   33.20000p    0.         0.         1.8000  
   33.30000p    0.         0.         1.8000  
   33.40000p    0.         0.         1.8000  
   33.50000p    0.         0.         1.8000  
   33.60000p    0.         0.         1.8000  
   33.70000p    0.         0.         1.8000  
   33.80000p    0.         0.         1.8000  
   33.90000p    0.         0.         1.8000  
   34.00000p    0.         0.         1.8000  
   34.10000p    0.         0.         1.8000  
   34.20000p    0.         0.         1.8000  
   34.30000p    0.         0.         1.8000  
   34.40000p    0.         0.         1.8000  
   34.50000p    0.         0.         1.8000  
   34.60000p    0.         0.         1.8000  
   34.70000p    0.         0.         1.8000  
   34.80000p    0.         0.         1.8000  
   34.90000p    0.         0.         1.8000  
   35.00000p    0.         0.         1.8000  
   35.10000p    0.         0.         1.8000  
   35.20000p    0.         0.         1.8000  
   35.30000p    0.         0.         1.8000  
   35.40000p    0.         0.         1.8000  
   35.50000p    0.         0.         1.8000  
   35.60000p    0.         0.         1.8000  
   35.70000p    0.         0.         1.8000  
   35.80000p    0.         0.         1.8000  
   35.90000p    0.         0.         1.8000  
   36.00000p    0.         0.         1.8000  
   36.10000p    0.         0.         1.8000  
   36.20000p    0.         0.         1.8000  
   36.30000p    0.         0.         1.8000  
   36.40000p    0.         0.         1.8000  
   36.50000p    0.         0.         1.8000  
   36.60000p    0.         0.         1.8000  
   36.70000p    0.         0.         1.8000  
   36.80000p    0.         0.         1.8000  
   36.90000p    0.         0.         1.8000  
   37.00000p    0.         0.         1.8000  
   37.10000p    0.         0.         1.8000  
   37.20000p    0.         0.         1.8000  
   37.30000p    0.         0.         1.8000  
   37.40000p    0.         0.         1.8000  
   37.50000p    0.         0.         1.8000  
   37.60000p    0.         0.         1.8000  
   37.70000p    0.         0.         1.8000  
   37.80000p    0.         0.         1.8000  
   37.90000p    0.         0.         1.8000  
   38.00000p    0.         0.         1.8000  
   38.10000p    0.         0.         1.8000  
   38.20000p    0.         0.         1.8000  
   38.30000p    0.         0.         1.8000  
   38.40000p    0.         0.         1.8000  
   38.50000p    0.         0.         1.8000  
   38.60000p    0.         0.         1.8000  
   38.70000p    0.         0.         1.8000  
   38.80000p    0.         0.         1.8000  
   38.90000p    0.         0.         1.8000  
   39.00000p    0.         0.         1.8000  
   39.10000p    0.         0.         1.8000  
   39.20000p    0.         0.         1.8000  
   39.30000p    0.         0.         1.8000  
   39.40000p    0.         0.         1.8000  
   39.50000p    0.         0.         1.8000  
   39.60000p    0.         0.         1.8000  
   39.70000p    0.         0.         1.8000  
   39.80000p    0.         0.         1.8000  
   39.90000p    0.         0.         1.8000  
   40.00000p    0.         0.         1.8000  
   40.10000p    0.         0.         1.8000  
   40.20000p    0.         0.         1.8000  
   40.30000p    0.         0.         1.8000  
   40.40000p    0.         0.         1.8000  
   40.50000p    0.         0.         1.8000  
   40.60000p    0.         0.         1.8000  
   40.70000p    0.         0.         1.8000  
   40.80000p    0.         0.         1.8000  
   40.90000p    0.         0.         1.8000  
   41.00000p    0.         0.         1.8000  
   41.10000p    0.         0.         1.8000  
   41.20000p    0.         0.         1.8000  
   41.30000p    0.         0.         1.8000  
   41.40000p    0.         0.         1.8000  
   41.50000p    0.         0.         1.8000  
   41.60000p    0.         0.         1.8000  
   41.70000p    0.         0.         1.8000  
   41.80000p    0.         0.         1.8000  
   41.90000p    0.         0.         1.8000  
   42.00000p    0.         0.         1.8000  
   42.10000p    0.         0.         1.8000  
   42.20000p    0.         0.         1.8000  
   42.30000p    0.         0.         1.8000  
   42.40000p    0.         0.         1.8000  
   42.50000p    0.         0.         1.8000  
   42.60000p    0.         0.         1.8000  
   42.70000p    0.         0.         1.8000  
   42.80000p    0.         0.         1.8000  
   42.90000p    0.         0.         1.8000  
   43.00000p    0.         0.         1.8000  
   43.10000p    0.         0.         1.8000  
   43.20000p    0.         0.         1.8000  
   43.30000p    0.         0.         1.8000  
   43.40000p    0.         0.         1.8000  
   43.50000p    0.         0.         1.8000  
   43.60000p    0.         0.         1.8000  
   43.70000p    0.         0.         1.8000  
   43.80000p    0.         0.         1.8000  
   43.90000p    0.         0.         1.8000  
   44.00000p    0.         0.         1.8000  
   44.10000p    0.         0.         1.8000  
   44.20000p    0.         0.         1.8000  
   44.30000p    0.         0.         1.8000  
   44.40000p    0.         0.         1.8000  
   44.50000p    0.         0.         1.8000  
   44.60000p    0.         0.         1.8000  
   44.70000p    0.         0.         1.8000  
   44.80000p    0.         0.         1.8000  
   44.90000p    0.         0.         1.8000  
   45.00000p    0.         0.         1.8000  
   45.10000p    0.         0.         1.8000  
   45.20000p    0.         0.         1.8000  
   45.30000p    0.         0.         1.8000  
   45.40000p    0.         0.         1.8000  
   45.50000p    0.         0.         1.8000  
   45.60000p    0.         0.         1.8000  
   45.70000p    0.         0.         1.8000  
   45.80000p    0.         0.         1.8000  
   45.90000p    0.         0.         1.8000  
   46.00000p    0.         0.         1.8000  
   46.10000p    0.         0.         1.8000  
   46.20000p    0.         0.         1.8000  
   46.30000p    0.         0.         1.8000  
   46.40000p    0.         0.         1.8000  
   46.50000p    0.         0.         1.8000  
   46.60000p    0.         0.         1.8000  
   46.70000p    0.         0.         1.8000  
   46.80000p    0.         0.         1.8000  
   46.90000p    0.         0.         1.8000  
   47.00000p    0.         0.         1.8000  
   47.10000p    0.         0.         1.8000  
   47.20000p    0.         0.         1.8000  
   47.30000p    0.         0.         1.8000  
   47.40000p    0.         0.         1.8000  
   47.50000p    0.         0.         1.8000  
   47.60000p    0.         0.         1.8000  
   47.70000p    0.         0.         1.8000  
   47.80000p    0.         0.         1.8000  
   47.90000p    0.         0.         1.8000  
   48.00000p    0.         0.         1.8000  
   48.10000p    0.         0.         1.8000  
   48.20000p    0.         0.         1.8000  
   48.30000p    0.         0.         1.8000  
   48.40000p    0.         0.         1.8000  
   48.50000p    0.         0.         1.8000  
   48.60000p    0.         0.         1.8000  
   48.70000p    0.         0.         1.8000  
   48.80000p    0.         0.         1.8000  
   48.90000p    0.         0.         1.8000  
   49.00000p    0.         0.         1.8000  
   49.10000p    0.         0.         1.8000  
   49.20000p    0.         0.         1.8000  
   49.30000p    0.         0.         1.8000  
   49.40000p    0.         0.         1.8000  
   49.50000p    0.         0.         1.8000  
   49.60000p    0.         0.         1.8000  
   49.70000p    0.         0.         1.8000  
   49.80000p    0.         0.         1.8000  
   49.90000p    0.         0.         1.8000  
   50.00000p    0.         0.         1.8000  
   50.10000p    0.         0.         1.8000  
   50.20000p    0.         0.         1.8000  
   50.30000p    0.         0.         1.8000  
   50.40000p    0.         0.         1.8000  
   50.50000p    0.         0.         1.8000  
   50.60000p    0.         0.         1.8000  
   50.70000p    0.         0.         1.8000  
   50.80000p    0.         0.         1.8000  
   50.90000p    0.         0.         1.8000  
   51.00000p    0.         0.         1.8000  
   51.10000p    0.         0.         1.8000  
   51.20000p    0.         0.         1.8000  
   51.30000p    0.         0.         1.8000  
   51.40000p    0.         0.         1.8000  
   51.50000p    0.         0.         1.8000  
   51.60000p    0.         0.         1.8000  
   51.70000p    0.         0.         1.8000  
   51.80000p    0.         0.         1.8000  
   51.90000p    0.         0.         1.8000  
   52.00000p    0.         0.         1.8000  
   52.10000p    0.         0.         1.8000  
   52.20000p    0.         0.         1.8000  
   52.30000p    0.         0.         1.8000  
   52.40000p    0.         0.         1.8000  
   52.50000p    0.         0.         1.8000  
   52.60000p    0.         0.         1.8000  
   52.70000p    0.         0.         1.8000  
   52.80000p    0.         0.         1.8000  
   52.90000p    0.         0.         1.8000  
   53.00000p    0.         0.         1.8000  
   53.10000p    0.         0.         1.8000  
   53.20000p    0.         0.         1.8000  
   53.30000p    0.         0.         1.8000  
   53.40000p    0.         0.         1.8000  
   53.50000p    0.         0.         1.8000  
   53.60000p    0.         0.         1.8000  
   53.70000p    0.         0.         1.8000  
   53.80000p    0.         0.         1.8000  
   53.90000p    0.         0.         1.8000  
   54.00000p    0.         0.         1.8000  
   54.10000p    0.         0.         1.8000  
   54.20000p    0.         0.         1.8000  
   54.30000p    0.         0.         1.8000  
   54.40000p    0.         0.         1.8000  
   54.50000p    0.         0.         1.8000  
   54.60000p    0.         0.         1.8000  
   54.70000p    0.         0.         1.8000  
   54.80000p    0.         0.         1.8000  
   54.90000p    0.         0.         1.8000  
   55.00000p    0.         0.         1.8000  
   55.10000p    0.         0.         1.8000  
   55.20000p    0.         0.         1.8000  
   55.30000p    0.         0.         1.8000  
   55.40000p    0.         0.         1.8000  
   55.50000p    0.         0.         1.8000  
   55.60000p    0.         0.         1.8000  
   55.70000p    0.         0.         1.8000  
   55.80000p    0.         0.         1.8000  
   55.90000p    0.         0.         1.8000  
   56.00000p    0.         0.         1.8000  
   56.10000p    0.         0.         1.8000  
   56.20000p    0.         0.         1.8000  
   56.30000p    0.         0.         1.8000  
   56.40000p    0.         0.         1.8000  
   56.50000p    0.         0.         1.8000  
   56.60000p    0.         0.         1.8000  
   56.70000p    0.         0.         1.8000  
   56.80000p    0.         0.         1.8000  
   56.90000p    0.         0.         1.8000  
   57.00000p    0.         0.         1.8000  
   57.10000p    0.         0.         1.8000  
   57.20000p    0.         0.         1.8000  
   57.30000p    0.         0.         1.8000  
   57.40000p    0.         0.         1.8000  
   57.50000p    0.         0.         1.8000  
   57.60000p    0.         0.         1.8000  
   57.70000p    0.         0.         1.8000  
   57.80000p    0.         0.         1.8000  
   57.90000p    0.         0.         1.8000  
   58.00000p    0.         0.         1.8000  
   58.10000p    0.         0.         1.8000  
   58.20000p    0.         0.         1.8000  
   58.30000p    0.         0.         1.8000  
   58.40000p    0.         0.         1.8000  
   58.50000p    0.         0.         1.8000  
   58.60000p    0.         0.         1.8000  
   58.70000p    0.         0.         1.8000  
   58.80000p    0.         0.         1.8000  
   58.90000p    0.         0.         1.8000  
   59.00000p    0.         0.         1.8000  
   59.10000p    0.         0.         1.8000  
   59.20000p    0.         0.         1.8000  
   59.30000p    0.         0.         1.8000  
   59.40000p    0.         0.         1.8000  
   59.50000p    0.         0.         1.8000  
   59.60000p    0.         0.         1.8000  
   59.70000p    0.         0.         1.8000  
   59.80000p    0.         0.         1.8000  
   59.90000p    0.         0.         1.8000  
   60.00000p    0.         0.         1.8000  
   60.10000p    0.         0.         1.8000  
   60.20000p    0.         0.         1.8000  
   60.30000p    0.         0.         1.8000  
   60.40000p    0.         0.         1.8000  
   60.50000p    0.         0.         1.8000  
   60.60000p    0.         0.         1.8000  
   60.70000p    0.         0.         1.8000  
   60.80000p    0.         0.         1.8000  
   60.90000p    0.         0.         1.8000  
   61.00000p    0.         0.         1.8000  
   61.10000p    0.         0.         1.8000  
   61.20000p    0.         0.         1.8000  
   61.30000p    0.         0.         1.8000  
   61.40000p    0.         0.         1.8000  
   61.50000p    0.         0.         1.8000  
   61.60000p    0.         0.         1.8000  
   61.70000p    0.         0.         1.8000  
   61.80000p    0.         0.         1.8000  
   61.90000p    0.         0.         1.8000  
   62.00000p    0.         0.         1.8000  
   62.10000p    0.         0.         1.8000  
   62.20000p    0.         0.         1.8000  
   62.30000p    0.         0.         1.8000  
   62.40000p    0.         0.         1.8000  
   62.50000p    0.         0.         1.8000  
   62.60000p    0.         0.         1.8000  
   62.70000p    0.         0.         1.8000  
   62.80000p    0.         0.         1.8000  
   62.90000p    0.         0.         1.8000  
   63.00000p    0.         0.         1.8000  
   63.10000p    0.         0.         1.8000  
   63.20000p    0.         0.         1.8000  
   63.30000p    0.         0.         1.8000  
   63.40000p    0.         0.         1.8000  
   63.50000p    0.         0.         1.8000  
   63.60000p    0.         0.         1.8000  
   63.70000p    0.         0.         1.8000  
   63.80000p    0.         0.         1.8000  
   63.90000p    0.         0.         1.8000  
   64.00000p    0.         0.         1.8000  
   64.10000p    0.         0.         1.8000  
   64.20000p    0.         0.         1.8000  
   64.30000p    0.         0.         1.8000  
   64.40000p    0.         0.         1.8000  
   64.50000p    0.         0.         1.8000  
   64.60000p    0.         0.         1.8000  
   64.70000p    0.         0.         1.8000  
   64.80000p    0.         0.         1.8000  
   64.90000p    0.         0.         1.8000  
   65.00000p    0.         0.         1.8000  
   65.10000p    0.         0.         1.8000  
   65.20000p    0.         0.         1.8000  
   65.30000p    0.         0.         1.8000  
   65.40000p    0.         0.         1.8000  
   65.50000p    0.         0.         1.8000  
   65.60000p    0.         0.         1.8000  
   65.70000p    0.         0.         1.8000  
   65.80000p    0.         0.         1.8000  
   65.90000p    0.         0.         1.8000  
   66.00000p    0.         0.         1.8000  
   66.10000p    0.         0.         1.8000  
   66.20000p    0.         0.         1.8000  
   66.30000p    0.         0.         1.8000  
   66.40000p    0.         0.         1.8000  
   66.50000p    0.         0.         1.8000  
   66.60000p    0.         0.         1.8000  
   66.70000p    0.         0.         1.8000  
   66.80000p    0.         0.         1.8000  
   66.90000p    0.         0.         1.8000  
   67.00000p    0.         0.         1.8000  
   67.10000p    0.         0.         1.8000  
   67.20000p    0.         0.         1.8000  
   67.30000p    0.         0.         1.8000  
   67.40000p    0.         0.         1.8000  
   67.50000p    0.         0.         1.8000  
   67.60000p    0.         0.         1.8000  
   67.70000p    0.         0.         1.8000  
   67.80000p    0.         0.         1.8000  
   67.90000p    0.         0.         1.8000  
   68.00000p    0.         0.         1.8000  
   68.10000p    0.         0.         1.8000  
   68.20000p    0.         0.         1.8000  
   68.30000p    0.         0.         1.8000  
   68.40000p    0.         0.         1.8000  
   68.50000p    0.         0.         1.8000  
   68.60000p    0.         0.         1.8000  
   68.70000p    0.         0.         1.8000  
   68.80000p    0.         0.         1.8000  
   68.90000p    0.         0.         1.8000  
   69.00000p    0.         0.         1.8000  
   69.10000p    0.         0.         1.8000  
   69.20000p    0.         0.         1.8000  
   69.30000p    0.         0.         1.8000  
   69.40000p    0.         0.         1.8000  
   69.50000p    0.         0.         1.8000  
   69.60000p    0.         0.         1.8000  
   69.70000p    0.         0.         1.8000  
   69.80000p    0.         0.         1.8000  
   69.90000p    0.         0.         1.8000  
   70.00000p    0.         0.         1.8000  
   70.10000p    0.         0.         1.8000  
   70.20000p    0.         0.         1.8000  
   70.30000p    0.         0.         1.8000  
   70.40000p    0.         0.         1.8000  
   70.50000p    0.         0.         1.8000  
   70.60000p    0.         0.         1.8000  
   70.70000p    0.         0.         1.8000  
   70.80000p    0.         0.         1.8000  
   70.90000p    0.         0.         1.8000  
   71.00000p    0.         0.         1.8000  
   71.10000p    0.         0.         1.8000  
   71.20000p    0.         0.         1.8000  
   71.30000p    0.         0.         1.8000  
   71.40000p    0.         0.         1.8000  
   71.50000p    0.         0.         1.8000  
   71.60000p    0.         0.         1.8000  
   71.70000p    0.         0.         1.8000  
   71.80000p    0.         0.         1.8000  
   71.90000p    0.         0.         1.8000  
   72.00000p    0.         0.         1.8000  
   72.10000p    0.         0.         1.8000  
   72.20000p    0.         0.         1.8000  
   72.30000p    0.         0.         1.8000  
   72.40000p    0.         0.         1.8000  
   72.50000p    0.         0.         1.8000  
   72.60000p    0.         0.         1.8000  
   72.70000p    0.         0.         1.8000  
   72.80000p    0.         0.         1.8000  
   72.90000p    0.         0.         1.8000  
   73.00000p    0.         0.         1.8000  
   73.10000p    0.         0.         1.8000  
   73.20000p    0.         0.         1.8000  
   73.30000p    0.         0.         1.8000  
   73.40000p    0.         0.         1.8000  
   73.50000p    0.         0.         1.8000  
   73.60000p    0.         0.         1.8000  
   73.70000p    0.         0.         1.8000  
   73.80000p    0.         0.         1.8000  
   73.90000p    0.         0.         1.8000  
   74.00000p    0.         0.         1.8000  
   74.10000p    0.         0.         1.8000  
   74.20000p    0.         0.         1.8000  
   74.30000p    0.         0.         1.8000  
   74.40000p    0.         0.         1.8000  
   74.50000p    0.         0.         1.8000  
   74.60000p    0.         0.         1.8000  
   74.70000p    0.         0.         1.8000  
   74.80000p    0.         0.         1.8000  
   74.90000p    0.         0.         1.8000  
   75.00000p    0.         0.         1.8000  
   75.10000p    0.         0.         1.8000  
   75.20000p    0.         0.         1.8000  
   75.30000p    0.         0.         1.8000  
   75.40000p    0.         0.         1.8000  
   75.50000p    0.         0.         1.8000  
   75.60000p    0.         0.         1.8000  
   75.70000p    0.         0.         1.8000  
   75.80000p    0.         0.         1.8000  
   75.90000p    0.         0.         1.8000  
   76.00000p    0.         0.         1.8000  
   76.10000p    0.         0.         1.8000  
   76.20000p    0.         0.         1.8000  
   76.30000p    0.         0.         1.8000  
   76.40000p    0.         0.         1.8000  
   76.50000p    0.         0.         1.8000  
   76.60000p    0.         0.         1.8000  
   76.70000p    0.         0.         1.8000  
   76.80000p    0.         0.         1.8000  
   76.90000p    0.         0.         1.8000  
   77.00000p    0.         0.         1.8000  
   77.10000p    0.         0.         1.8000  
   77.20000p    0.         0.         1.8000  
   77.30000p    0.         0.         1.8000  
   77.40000p    0.         0.         1.8000  
   77.50000p    0.         0.         1.8000  
   77.60000p    0.         0.         1.8000  
   77.70000p    0.         0.         1.8000  
   77.80000p    0.         0.         1.8000  
   77.90000p    0.         0.         1.8000  
   78.00000p    0.         0.         1.8000  
   78.10000p    0.         0.         1.8000  
   78.20000p    0.         0.         1.8000  
   78.30000p    0.         0.         1.8000  
   78.40000p    0.         0.         1.8000  
   78.50000p    0.         0.         1.8000  
   78.60000p    0.         0.         1.8000  
   78.70000p    0.         0.         1.8000  
   78.80000p    0.         0.         1.8000  
   78.90000p    0.         0.         1.8000  
   79.00000p    0.         0.         1.8000  
   79.10000p    0.         0.         1.8000  
   79.20000p    0.         0.         1.8000  
   79.30000p    0.         0.         1.8000  
   79.40000p    0.         0.         1.8000  
   79.50000p    0.         0.         1.8000  
   79.60000p    0.         0.         1.8000  
   79.70000p    0.         0.         1.8000  
   79.80000p    0.         0.         1.8000  
   79.90000p    0.         0.         1.8000  
   80.00000p    0.         0.         1.8000  
   80.10000p    0.         0.         1.8000  
   80.20000p    0.         0.         1.8000  
   80.30000p    0.         0.         1.8000  
   80.40000p    0.         0.         1.8000  
   80.50000p    0.         0.         1.8000  
   80.60000p    0.         0.         1.8000  
   80.70000p    0.         0.         1.8000  
   80.80000p    0.         0.         1.8000  
   80.90000p    0.         0.         1.8000  
   81.00000p    0.         0.         1.8000  
   81.10000p    0.         0.         1.8000  
   81.20000p    0.         0.         1.8000  
   81.30000p    0.         0.         1.8000  
   81.40000p    0.         0.         1.8000  
   81.50000p    0.         0.         1.8000  
   81.60000p    0.         0.         1.8000  
   81.70000p    0.         0.         1.8000  
   81.80000p    0.         0.         1.8000  
   81.90000p    0.         0.         1.8000  
   82.00000p    0.         0.         1.8000  
   82.10000p    0.         0.         1.8000  
   82.20000p    0.         0.         1.8000  
   82.30000p    0.         0.         1.8000  
   82.40000p    0.         0.         1.8000  
   82.50000p    0.         0.         1.8000  
   82.60000p    0.         0.         1.8000  
   82.70000p    0.         0.         1.8000  
   82.80000p    0.         0.         1.8000  
   82.90000p    0.         0.         1.8000  
   83.00000p    0.         0.         1.8000  
   83.10000p    0.         0.         1.8000  
   83.20000p    0.         0.         1.8000  
   83.30000p    0.         0.         1.8000  
   83.40000p    0.         0.         1.8000  
   83.50000p    0.         0.         1.8000  
   83.60000p    0.         0.         1.8000  
   83.70000p    0.         0.         1.8000  
   83.80000p    0.         0.         1.8000  
   83.90000p    0.         0.         1.8000  
   84.00000p    0.         0.         1.8000  
   84.10000p    0.         0.         1.8000  
   84.20000p    0.         0.         1.8000  
   84.30000p    0.         0.         1.8000  
   84.40000p    0.         0.         1.8000  
   84.50000p    0.         0.         1.8000  
   84.60000p    0.         0.         1.8000  
   84.70000p    0.         0.         1.8000  
   84.80000p    0.         0.         1.8000  
   84.90000p    0.         0.         1.8000  
   85.00000p    0.         0.         1.8000  
   85.10000p    0.         0.         1.8000  
   85.20000p    0.         0.         1.8000  
   85.30000p    0.         0.         1.8000  
   85.40000p    0.         0.         1.8000  
   85.50000p    0.         0.         1.8000  
   85.60000p    0.         0.         1.8000  
   85.70000p    0.         0.         1.8000  
   85.80000p    0.         0.         1.8000  
   85.90000p    0.         0.         1.8000  
   86.00000p    0.         0.         1.8000  
   86.10000p    0.         0.         1.8000  
   86.20000p    0.         0.         1.8000  
   86.30000p    0.         0.         1.8000  
   86.40000p    0.         0.         1.8000  
   86.50000p    0.         0.         1.8000  
   86.60000p    0.         0.         1.8000  
   86.70000p    0.         0.         1.8000  
   86.80000p    0.         0.         1.8000  
   86.90000p    0.         0.         1.8000  
   87.00000p    0.         0.         1.8000  
   87.10000p    0.         0.         1.8000  
   87.20000p    0.         0.         1.8000  
   87.30000p    0.         0.         1.8000  
   87.40000p    0.         0.         1.8000  
   87.50000p    0.         0.         1.8000  
   87.60000p    0.         0.         1.8000  
   87.70000p    0.         0.         1.8000  
   87.80000p    0.         0.         1.8000  
   87.90000p    0.         0.         1.8000  
   88.00000p    0.         0.         1.8000  
   88.10000p    0.         0.         1.8000  
   88.20000p    0.         0.         1.8000  
   88.30000p    0.         0.         1.8000  
   88.40000p    0.         0.         1.8000  
   88.50000p    0.         0.         1.8000  
   88.60000p    0.         0.         1.8000  
   88.70000p    0.         0.         1.8000  
   88.80000p    0.         0.         1.8000  
   88.90000p    0.         0.         1.8000  
   89.00000p    0.         0.         1.8000  
   89.10000p    0.         0.         1.8000  
   89.20000p    0.         0.         1.8000  
   89.30000p    0.         0.         1.8000  
   89.40000p    0.         0.         1.8000  
   89.50000p    0.         0.         1.8000  
   89.60000p    0.         0.         1.8000  
   89.70000p    0.         0.         1.8000  
   89.80000p    0.         0.         1.8000  
   89.90000p    0.         0.         1.8000  
   90.00000p    0.         0.         1.8000  
   90.10000p    0.         0.         1.8000  
   90.20000p    0.         0.         1.8000  
   90.30000p    0.         0.         1.8000  
   90.40000p    0.         0.         1.8000  
   90.50000p    0.         0.         1.8000  
   90.60000p    0.         0.         1.8000  
   90.70000p    0.         0.         1.8000  
   90.80000p    0.         0.         1.8000  
   90.90000p    0.         0.         1.8000  
   91.00000p    0.         0.         1.8000  
   91.10000p    0.         0.         1.8000  
   91.20000p    0.         0.         1.8000  
   91.30000p    0.         0.         1.8000  
   91.40000p    0.         0.         1.8000  
   91.50000p    0.         0.         1.8000  
   91.60000p    0.         0.         1.8000  
   91.70000p    0.         0.         1.8000  
   91.80000p    0.         0.         1.8000  
   91.90000p    0.         0.         1.8000  
   92.00000p    0.         0.         1.8000  
   92.10000p    0.         0.         1.8000  
   92.20000p    0.         0.         1.8000  
   92.30000p    0.         0.         1.8000  
   92.40000p    0.         0.         1.8000  
   92.50000p    0.         0.         1.8000  
   92.60000p    0.         0.         1.8000  
   92.70000p    0.         0.         1.8000  
   92.80000p    0.         0.         1.8000  
   92.90000p    0.         0.         1.8000  
   93.00000p    0.         0.         1.8000  
   93.10000p    0.         0.         1.8000  
   93.20000p    0.         0.         1.8000  
   93.30000p    0.         0.         1.8000  
   93.40000p    0.         0.         1.8000  
   93.50000p    0.         0.         1.8000  
   93.60000p    0.         0.         1.8000  
   93.70000p    0.         0.         1.8000  
   93.80000p    0.         0.         1.8000  
   93.90000p    0.         0.         1.8000  
   94.00000p    0.         0.         1.8000  
   94.10000p    0.         0.         1.8000  
   94.20000p    0.         0.         1.8000  
   94.30000p    0.         0.         1.8000  
   94.40000p    0.         0.         1.8000  
   94.50000p    0.         0.         1.8000  
   94.60000p    0.         0.         1.8000  
   94.70000p    0.         0.         1.8000  
   94.80000p    0.         0.         1.8000  
   94.90000p    0.         0.         1.8000  
   95.00000p    0.         0.         1.8000  
   95.10000p    0.         0.         1.8000  
   95.20000p    0.         0.         1.8000  
   95.30000p    0.         0.         1.8000  
   95.40000p    0.         0.         1.8000  
   95.50000p    0.         0.         1.8000  
   95.60000p    0.         0.         1.8000  
   95.70000p    0.         0.         1.8000  
   95.80000p    0.         0.         1.8000  
   95.90000p    0.         0.         1.8000  
   96.00000p    0.         0.         1.8000  
   96.10000p    0.         0.         1.8000  
   96.20000p    0.         0.         1.8000  
   96.30000p    0.         0.         1.8000  
   96.40000p    0.         0.         1.8000  
   96.50000p    0.         0.         1.8000  
   96.60000p    0.         0.         1.8000  
   96.70000p    0.         0.         1.8000  
   96.80000p    0.         0.         1.8000  
   96.90000p    0.         0.         1.8000  
   97.00000p    0.         0.         1.8000  
   97.10000p    0.         0.         1.8000  
   97.20000p    0.         0.         1.8000  
   97.30000p    0.         0.         1.8000  
   97.40000p    0.         0.         1.8000  
   97.50000p    0.         0.         1.8000  
   97.60000p    0.         0.         1.8000  
   97.70000p    0.         0.         1.8000  
   97.80000p    0.         0.         1.8000  
   97.90000p    0.         0.         1.8000  
   98.00000p    0.         0.         1.8000  
   98.10000p    0.         0.         1.8000  
   98.20000p    0.         0.         1.8000  
   98.30000p    0.         0.         1.8000  
   98.40000p    0.         0.         1.8000  
   98.50000p    0.         0.         1.8000  
   98.60000p    0.         0.         1.8000  
   98.70000p    0.         0.         1.8000  
   98.80000p    0.         0.         1.8000  
   98.90000p    0.         0.         1.8000  
   99.00000p    0.         0.         1.8000  
   99.10000p    0.         0.         1.8000  
   99.20000p    0.         0.         1.8000  
   99.30000p    0.         0.         1.8000  
   99.40000p    0.         0.         1.8000  
   99.50000p    0.         0.         1.8000  
   99.60000p    0.         0.         1.8000  
   99.70000p    0.         0.         1.8000  
   99.80000p    0.         0.         1.8000  
   99.90000p    0.         0.         1.8000  
  100.00000p    0.         0.         1.8000  
  100.10000p    1.8000m    0.         1.8006  
  100.20000p    3.6000m    0.         1.8012  
  100.30000p    5.4000m    0.         1.8018  
  100.40000p    7.2000m    0.         1.8024  
  100.50000p    9.0000m    0.         1.8030  
  100.60000p   10.8000m    0.         1.8037  
  100.70000p   12.6000m    0.         1.8043  
  100.80000p   14.4000m    0.         1.8049  
  100.90000p   16.2000m    0.         1.8055  
  101.00000p   18.0000m    0.         1.8061  
  101.10000p   19.8000m    0.         1.8067  
  101.20000p   21.6000m    0.         1.8073  
  101.30000p   23.4000m    0.         1.8079  
  101.40000p   25.2000m    0.         1.8085  
  101.50000p   27.0000m    0.         1.8091  
  101.60000p   28.8000m    0.         1.8098  
  101.70000p   30.6000m    0.         1.8104  
  101.80000p   32.4000m    0.         1.8108  
  101.90000p   34.2000m    0.         1.8112  
  102.00000p   36.0000m    0.         1.8116  
  102.10000p   37.8000m    0.         1.8120  
  102.20000p   39.6000m    0.         1.8124  
  102.30000p   41.4000m    0.         1.8128  
  102.40000p   43.2000m    0.         1.8132  
  102.50000p   45.0000m    0.         1.8136  
  102.60000p   46.8000m    0.         1.8140  
  102.70000p   48.6000m    0.         1.8144  
  102.80000p   50.4000m    0.         1.8148  
  102.90000p   52.2000m    0.         1.8152  
  103.00000p   54.0000m    0.         1.8156  
  103.10000p   55.8000m    0.         1.8159  
  103.20000p   57.6000m    0.         1.8160  
  103.30000p   59.4000m    0.         1.8161  
  103.40000p   61.2000m    0.         1.8162  
  103.50000p   63.0000m    0.         1.8162  
  103.60000p   64.8000m    0.         1.8163  
  103.70000p   66.6000m    0.         1.8164  
  103.80000p   68.4000m    0.         1.8165  
  103.90000p   70.2000m    0.         1.8166  
  104.00000p   72.0000m    0.         1.8167  
  104.10000p   73.8000m    0.         1.8168  
  104.20000p   75.6000m    0.         1.8169  
  104.30000p   77.4000m    0.         1.8170  
  104.40000p   79.2000m    0.         1.8171  
  104.50000p   81.0000m    0.         1.8171  
  104.60000p   82.8000m    0.         1.8172  
  104.70000p   84.6000m    0.         1.8173  
  104.80000p   86.4000m    0.         1.8174  
  104.90000p   88.2000m    0.         1.8175  
  105.00000p   90.0000m    0.         1.8176  
  105.10000p   91.8000m    0.         1.8177  
  105.20000p   93.6000m    0.         1.8178  
  105.30000p   95.4000m    0.         1.8179  
  105.40000p   97.2000m    0.         1.8180  
  105.50000p   99.0000m    0.         1.8180  
  105.60000p  100.8000m    0.         1.8181  
  105.70000p  102.6000m    0.         1.8182  
  105.80000p  104.4000m    0.         1.8183  
  105.90000p  106.2000m    0.         1.8184  
  106.00000p  108.0000m    0.         1.8185  
  106.10000p  109.8000m    0.         1.8186  
  106.20000p  111.6000m    0.         1.8187  
  106.30000p  113.4000m    0.         1.8188  
  106.40000p  115.2000m    0.         1.8189  
  106.50000p  117.0000m    0.         1.8189  
  106.60000p  118.8000m    0.         1.8190  
  106.70000p  120.6000m    0.         1.8191  
  106.80000p  122.4000m    0.         1.8192  
  106.90000p  124.2000m    0.         1.8193  
  107.00000p  126.0000m    0.         1.8194  
  107.10000p  127.8000m    0.         1.8195  
  107.20000p  129.6000m    0.         1.8196  
  107.30000p  131.4000m    0.         1.8197  
  107.40000p  133.2000m    0.         1.8198  
  107.50000p  135.0000m    0.         1.8198  
  107.60000p  136.8000m    0.         1.8198  
  107.70000p  138.6000m    0.         1.8198  
  107.80000p  140.4000m    0.         1.8198  
  107.90000p  142.2000m    0.         1.8198  
  108.00000p  144.0000m    0.         1.8198  
  108.10000p  145.8000m    0.         1.8198  
  108.20000p  147.6000m    0.         1.8198  
  108.30000p  149.4000m    0.         1.8198  
  108.40000p  151.2000m    0.         1.8198  
  108.50000p  153.0000m    0.         1.8198  
  108.60000p  154.8000m    0.         1.8198  
  108.70000p  156.6000m    0.         1.8197  
  108.80000p  158.4000m    0.         1.8197  
  108.90000p  160.2000m    0.         1.8197  
  109.00000p  162.0000m    0.         1.8197  
  109.10000p  163.8000m    0.         1.8197  
  109.20000p  165.6000m    0.         1.8197  
  109.30000p  167.4000m    0.         1.8197  
  109.40000p  169.2000m    0.         1.8197  
  109.50000p  171.0000m    0.         1.8197  
  109.60000p  172.8000m    0.         1.8197  
  109.70000p  174.6000m    0.         1.8197  
  109.80000p  176.4000m    0.         1.8197  
  109.90000p  178.2000m    0.         1.8197  
  110.00000p  180.0000m    0.         1.8197  
  110.10000p  181.8000m    0.         1.8197  
  110.20000p  183.6000m    0.         1.8197  
  110.30000p  185.4000m    0.         1.8197  
  110.40000p  187.2000m    0.         1.8197  
  110.50000p  189.0000m    0.         1.8197  
  110.60000p  190.8000m    0.         1.8197  
  110.70000p  192.6000m    0.         1.8197  
  110.80000p  194.4000m    0.         1.8197  
  110.90000p  196.2000m    0.         1.8197  
  111.00000p  198.0000m    0.         1.8197  
  111.10000p  199.8000m    0.         1.8197  
  111.20000p  201.6000m    0.         1.8197  
  111.30000p  203.4000m    0.         1.8197  
  111.40000p  205.2000m    0.         1.8197  
  111.50000p  207.0000m    0.         1.8197  
  111.60000p  208.8000m    0.         1.8197  
  111.70000p  210.6000m    0.         1.8197  
  111.80000p  212.4000m    0.         1.8197  
  111.90000p  214.2000m    0.         1.8197  
  112.00000p  216.0000m    0.         1.8197  
  112.10000p  217.8000m    0.         1.8197  
  112.20000p  219.6000m    0.         1.8197  
  112.30000p  221.4000m    0.         1.8197  
  112.40000p  223.2000m    0.         1.8197  
  112.50000p  225.0000m    0.         1.8197  
  112.60000p  226.8000m    0.         1.8197  
  112.70000p  228.6000m    0.         1.8197  
  112.80000p  230.4000m    0.         1.8197  
  112.90000p  232.2000m    0.         1.8197  
  113.00000p  234.0000m    0.         1.8197  
  113.10000p  235.8000m    0.         1.8197  
  113.20000p  237.6000m    0.         1.8197  
  113.30000p  239.4000m    0.         1.8197  
  113.40000p  241.2000m    0.         1.8197  
  113.50000p  243.0000m    0.         1.8197  
  113.60000p  244.8000m    0.         1.8197  
  113.70000p  246.6000m    0.         1.8197  
  113.80000p  248.4000m    0.         1.8197  
  113.90000p  250.2000m    0.         1.8197  
  114.00000p  252.0000m    0.         1.8197  
  114.10000p  253.8000m    0.         1.8197  
  114.20000p  255.6000m    0.         1.8197  
  114.30000p  257.4000m    0.         1.8197  
  114.40000p  259.2000m    0.         1.8197  
  114.50000p  261.0000m    0.         1.8197  
  114.60000p  262.8000m    0.         1.8197  
  114.70000p  264.6000m    0.         1.8197  
  114.80000p  266.4000m    0.         1.8197  
  114.90000p  268.2000m    0.         1.8197  
  115.00000p  270.0000m    0.         1.8197  
  115.10000p  271.8000m    0.         1.8197  
  115.20000p  273.6000m    0.         1.8197  
  115.30000p  275.4000m    0.         1.8197  
  115.40000p  277.2000m    0.         1.8197  
  115.50000p  279.0000m    0.         1.8197  
  115.60000p  280.8000m    0.         1.8197  
  115.70000p  282.6000m    0.         1.8197  
  115.80000p  284.4000m    0.         1.8197  
  115.90000p  286.2000m    0.         1.8197  
  116.00000p  288.0000m    0.         1.8197  
  116.10000p  289.8000m    0.         1.8197  
  116.20000p  291.6000m    0.         1.8197  
  116.30000p  293.4000m    0.         1.8197  
  116.40000p  295.2000m    0.         1.8196  
  116.50000p  297.0000m    0.         1.8196  
  116.60000p  298.8000m    0.         1.8196  
  116.70000p  300.6000m    0.         1.8196  
  116.80000p  302.4000m    0.         1.8197  
  116.90000p  304.2000m    0.         1.8197  
  117.00000p  306.0000m    0.         1.8197  
  117.10000p  307.8000m    0.         1.8197  
  117.20000p  309.6000m    0.         1.8197  
  117.30000p  311.4000m    0.         1.8197  
  117.40000p  313.2000m    0.         1.8198  
  117.50000p  315.0000m    0.         1.8198  
  117.60000p  316.8000m    0.         1.8198  
  117.70000p  318.6000m    0.         1.8198  
  117.80000p  320.4000m    0.         1.8198  
  117.90000p  322.2000m    0.         1.8198  
  118.00000p  324.0000m    0.         1.8198  
  118.10000p  325.8000m    0.         1.8199  
  118.20000p  327.6000m    0.         1.8199  
  118.30000p  329.4000m    0.         1.8199  
  118.40000p  331.2000m    0.         1.8199  
  118.50000p  333.0000m    0.         1.8199  
  118.60000p  334.8000m    0.         1.8199  
  118.70000p  336.6000m    0.         1.8200  
  118.80000p  338.4000m    0.         1.8200  
  118.90000p  340.2000m    0.         1.8200  
  119.00000p  342.0000m    0.         1.8200  
  119.10000p  343.8000m    0.         1.8200  
  119.20000p  345.6000m    0.         1.8200  
  119.30000p  347.4000m    0.         1.8201  
  119.40000p  349.2000m    0.         1.8201  
  119.50000p  351.0000m    0.         1.8201  
  119.60000p  352.8000m    0.         1.8201  
  119.70000p  354.6000m    0.         1.8201  
  119.80000p  356.4000m    0.         1.8201  
  119.90000p  358.2000m    0.         1.8201  
  120.00000p  360.0000m    0.         1.8202  
  120.10000p  361.8000m    0.         1.8202  
  120.20000p  363.6000m    0.         1.8202  
  120.30000p  365.4000m    0.         1.8202  
  120.40000p  367.2000m    0.         1.8202  
  120.50000p  369.0000m    0.         1.8202  
  120.60000p  370.8000m    0.         1.8203  
  120.70000p  372.6000m    0.         1.8203  
  120.80000p  374.4000m    0.         1.8203  
  120.90000p  376.2000m    0.         1.8203  
  121.00000p  378.0000m    0.         1.8203  
  121.10000p  379.8000m    0.         1.8203  
  121.20000p  381.6000m    0.         1.8203  
  121.30000p  383.4000m    0.         1.8204  
  121.40000p  385.2000m    0.         1.8204  
  121.50000p  387.0000m    0.         1.8204  
  121.60000p  388.8000m    0.         1.8204  
  121.70000p  390.6000m    0.         1.8204  
  121.80000p  392.4000m    0.         1.8204  
  121.90000p  394.2000m    0.         1.8205  
  122.00000p  396.0000m    0.         1.8205  
  122.10000p  397.8000m    0.         1.8205  
  122.20000p  399.6000m    0.         1.8205  
  122.30000p  401.4000m    0.         1.8205  
  122.40000p  403.2000m    0.         1.8205  
  122.50000p  405.0000m    0.         1.8206  
  122.60000p  406.8000m    0.         1.8206  
  122.70000p  408.6000m    0.         1.8206  
  122.80000p  410.4000m    0.         1.8205  
  122.90000p  412.2000m    0.         1.8205  
  123.00000p  414.0000m    0.         1.8204  
  123.10000p  415.8000m    0.         1.8203  
  123.20000p  417.6000m    0.         1.8203  
  123.30000p  419.4000m    0.         1.8202  
  123.40000p  421.2000m    0.         1.8202  
  123.50000p  423.0000m    0.         1.8201  
  123.60000p  424.8000m    0.         1.8200  
  123.70000p  426.6000m    0.         1.8200  
  123.80000p  428.4000m    0.         1.8199  
  123.90000p  430.2000m    0.         1.8199  
  124.00000p  432.0000m    0.         1.8198  
  124.10000p  433.8000m    0.         1.8197  
  124.20000p  435.6000m    0.         1.8197  
  124.30000p  437.4000m    0.         1.8196  
  124.40000p  439.2000m    0.         1.8196  
  124.50000p  441.0000m    0.         1.8195  
  124.60000p  442.8000m    0.         1.8194  
  124.70000p  444.6000m    0.         1.8194  
  124.80000p  446.4000m    0.         1.8193  
  124.90000p  448.2000m    0.         1.8193  
  125.00000p  450.0000m    0.         1.8192  
  125.10000p  451.8000m    0.         1.8191  
  125.20000p  453.6000m    0.         1.8191  
  125.30000p  455.4000m    0.         1.8190  
[...]
  862.00000p    0.         0.         1.7981  
  862.10000p    0.         0.         1.7981  
  862.20000p    0.         0.         1.7981  
  862.30000p    0.         0.         1.7981  
  862.40000p    0.         0.         1.7981  
  862.50000p    0.         0.         1.7981  
  862.60000p    0.         0.         1.7981  
  862.70000p    0.         0.         1.7981  
  862.80000p    0.         0.         1.7981  
  862.90000p    0.         0.         1.7981  
  863.00000p    0.         0.         1.7981  
  863.10000p    0.         0.         1.7981  
  863.20000p    0.         0.         1.7981  
  863.30000p    0.         0.         1.7981  
  863.40000p    0.         0.         1.7981  
  863.50000p    0.         0.         1.7981  
  863.60000p    0.         0.         1.7981  
  863.70000p    0.         0.         1.7981  
  863.80000p    0.         0.         1.7981  
  863.90000p    0.         0.         1.7981  
  864.00000p    0.         0.         1.7981  
  864.10000p    0.         0.         1.7981  
  864.20000p    0.         0.         1.7981  
  864.30000p    0.         0.         1.7981  
  864.40000p    0.         0.         1.7981  
  864.50000p    0.         0.         1.7981  
  864.60000p    0.         0.         1.7981  
  864.70000p    0.         0.         1.7981  
  864.80000p    0.         0.         1.7981  
  864.90000p    0.         0.         1.7981  
  865.00000p    0.         0.         1.7981  
  865.10000p    0.         0.         1.7981  
  865.20000p    0.         0.         1.7981  
  865.30000p    0.         0.         1.7981  
  865.40000p    0.         0.         1.7982  
  865.50000p    0.         0.         1.7982  
  865.60000p    0.         0.         1.7982  
  865.70000p    0.         0.         1.7982  
  865.80000p    0.         0.         1.7982  
  865.90000p    0.         0.         1.7982  
  866.00000p    0.         0.         1.7982  
  866.10000p    0.         0.         1.7982  
  866.20000p    0.         0.         1.7982  
  866.30000p    0.         0.         1.7982  
  866.40000p    0.         0.         1.7982  
  866.50000p    0.         0.         1.7982  
  866.60000p    0.         0.         1.7982  
  866.70000p    0.         0.         1.7982  
  866.80000p    0.         0.         1.7982  
  866.90000p    0.         0.         1.7982  
  867.00000p    0.         0.         1.7982  
  867.10000p    0.         0.         1.7982  
  867.20000p    0.         0.         1.7982  
  867.30000p    0.         0.         1.7982  
  867.40000p    0.         0.         1.7982  
  867.50000p    0.         0.         1.7982  
  867.60000p    0.         0.         1.7982  
  867.70000p    0.         0.         1.7982  
  867.80000p    0.         0.         1.7982  
  867.90000p    0.         0.         1.7982  
  868.00000p    0.         0.         1.7982  
  868.10000p    0.         0.         1.7982  
  868.20000p    0.         0.         1.7982  
  868.30000p    0.         0.         1.7982  
  868.40000p    0.         0.         1.7982  
  868.50000p    0.         0.         1.7982  
  868.60000p    0.         0.         1.7982  
  868.70000p    0.         0.         1.7982  
  868.80000p    0.         0.         1.7982  
  868.90000p    0.         0.         1.7982  
  869.00000p    0.         0.         1.7982  
  869.10000p    0.         0.         1.7982  
  869.20000p    0.         0.         1.7982  
  869.30000p    0.         0.         1.7982  
  869.40000p    0.         0.         1.7983  
  869.50000p    0.         0.         1.7983  
  869.60000p    0.         0.         1.7983  
  869.70000p    0.         0.         1.7983  
  869.80000p    0.         0.         1.7983  
  869.90000p    0.         0.         1.7983  
  870.00000p    0.         0.         1.7983  
  870.10000p    0.         0.         1.7983  
  870.20000p    0.         0.         1.7983  
  870.30000p    0.         0.         1.7983  
  870.40000p    0.         0.         1.7983  
  870.50000p    0.         0.         1.7983  
  870.60000p    0.         0.         1.7983  
  870.70000p    0.         0.         1.7983  
  870.80000p    0.         0.         1.7983  
  870.90000p    0.         0.         1.7983  
  871.00000p    0.         0.         1.7983  
  871.10000p    0.         0.         1.7983  
  871.20000p    0.         0.         1.7983  
  871.30000p    0.         0.         1.7983  
  871.40000p    0.         0.         1.7983  
  871.50000p    0.         0.         1.7983  
  871.60000p    0.         0.         1.7983  
  871.70000p    0.         0.         1.7983  
  871.80000p    0.         0.         1.7983  
  871.90000p    0.         0.         1.7983  
  872.00000p    0.         0.         1.7983  
  872.10000p    0.         0.         1.7983  
  872.20000p    0.         0.         1.7983  
  872.30000p    0.         0.         1.7983  
  872.40000p    0.         0.         1.7983  
  872.50000p    0.         0.         1.7983  
  872.60000p    0.         0.         1.7983  
  872.70000p    0.         0.         1.7983  
  872.80000p    0.         0.         1.7983  
  872.90000p    0.         0.         1.7983  
  873.00000p    0.         0.         1.7983  
  873.10000p    0.         0.         1.7983  
  873.20000p    0.         0.         1.7983  
  873.30000p    0.         0.         1.7983  
  873.40000p    0.         0.         1.7984  
  873.50000p    0.         0.         1.7984  
  873.60000p    0.         0.         1.7984  
  873.70000p    0.         0.         1.7984  
  873.80000p    0.         0.         1.7984  
  873.90000p    0.         0.         1.7984  
  874.00000p    0.         0.         1.7984  
  874.10000p    0.         0.         1.7984  
  874.20000p    0.         0.         1.7984  
  874.30000p    0.         0.         1.7984  
  874.40000p    0.         0.         1.7984  
  874.50000p    0.         0.         1.7984  
  874.60000p    0.         0.         1.7984  
  874.70000p    0.         0.         1.7984  
  874.80000p    0.         0.         1.7984  
  874.90000p    0.         0.         1.7984  
  875.00000p    0.         0.         1.7984  
  875.10000p    0.         0.         1.7984  
  875.20000p    0.         0.         1.7984  
  875.30000p    0.         0.         1.7984  
  875.40000p    0.         0.         1.7984  
  875.50000p    0.         0.         1.7984  
  875.60000p    0.         0.         1.7984  
  875.70000p    0.         0.         1.7984  
  875.80000p    0.         0.         1.7984  
  875.90000p    0.         0.         1.7984  
  876.00000p    0.         0.         1.7984  
  876.10000p    0.         0.         1.7984  
  876.20000p    0.         0.         1.7984  
  876.30000p    0.         0.         1.7984  
  876.40000p    0.         0.         1.7984  
  876.50000p    0.         0.         1.7984  
  876.60000p    0.         0.         1.7984  
  876.70000p    0.         0.         1.7984  
  876.80000p    0.         0.         1.7984  
  876.90000p    0.         0.         1.7984  
  877.00000p    0.         0.         1.7984  
  877.10000p    0.         0.         1.7984  
  877.20000p    0.         0.         1.7984  
  877.30000p    0.         0.         1.7985  
  877.40000p    0.         0.         1.7985  
  877.50000p    0.         0.         1.7985  
  877.60000p    0.         0.         1.7985  
  877.70000p    0.         0.         1.7985  
  877.80000p    0.         0.         1.7985  
  877.90000p    0.         0.         1.7985  
  878.00000p    0.         0.         1.7985  
  878.10000p    0.         0.         1.7985  
  878.20000p    0.         0.         1.7985  
  878.30000p    0.         0.         1.7985  
  878.40000p    0.         0.         1.7985  
  878.50000p    0.         0.         1.7985  
  878.60000p    0.         0.         1.7985  
  878.70000p    0.         0.         1.7985  
  878.80000p    0.         0.         1.7985  
  878.90000p    0.         0.         1.7985  
  879.00000p    0.         0.         1.7985  
  879.10000p    0.         0.         1.7985  
  879.20000p    0.         0.         1.7985  
  879.30000p    0.         0.         1.7985  
  879.40000p    0.         0.         1.7985  
  879.50000p    0.         0.         1.7985  
  879.60000p    0.         0.         1.7985  
  879.70000p    0.         0.         1.7985  
  879.80000p    0.         0.         1.7985  
  879.90000p    0.         0.         1.7985  
  880.00000p    0.         0.         1.7985  
  880.10000p    0.         0.         1.7985  
  880.20000p    0.         0.         1.7985  
  880.30000p    0.         0.         1.7985  
  880.40000p    0.         0.         1.7985  
  880.50000p    0.         0.         1.7985  
  880.60000p    0.         0.         1.7985  
  880.70000p    0.         0.         1.7985  
  880.80000p    0.         0.         1.7985  
  880.90000p    0.         0.         1.7985  
  881.00000p    0.         0.         1.7985  
  881.10000p    0.         0.         1.7985  
  881.20000p    0.         0.         1.7985  
  881.30000p    0.         0.         1.7986  
  881.40000p    0.         0.         1.7986  
  881.50000p    0.         0.         1.7986  
  881.60000p    0.         0.         1.7986  
  881.70000p    0.         0.         1.7986  
  881.80000p    0.         0.         1.7986  
  881.90000p    0.         0.         1.7986  
  882.00000p    0.         0.         1.7986  
  882.10000p    0.         0.         1.7986  
  882.20000p    0.         0.         1.7986  
  882.30000p    0.         0.         1.7986  
  882.40000p    0.         0.         1.7986  
  882.50000p    0.         0.         1.7986  
  882.60000p    0.         0.         1.7986  
  882.70000p    0.         0.         1.7986  
  882.80000p    0.         0.         1.7986  
  882.90000p    0.         0.         1.7986  
  883.00000p    0.         0.         1.7986  
  883.10000p    0.         0.         1.7986  
  883.20000p    0.         0.         1.7986  
  883.30000p    0.         0.         1.7986  
  883.40000p    0.         0.         1.7986  
  883.50000p    0.         0.         1.7986  
  883.60000p    0.         0.         1.7986  
  883.70000p    0.         0.         1.7986  
  883.80000p    0.         0.         1.7986  
  883.90000p    0.         0.         1.7986  
  884.00000p    0.         0.         1.7986  
  884.10000p    0.         0.         1.7986  
  884.20000p    0.         0.         1.7986  
  884.30000p    0.         0.         1.7986  
  884.40000p    0.         0.         1.7986  
  884.50000p    0.         0.         1.7986  
  884.60000p    0.         0.         1.7986  
  884.70000p    0.         0.         1.7986  
  884.80000p    0.         0.         1.7986  
  884.90000p    0.         0.         1.7986  
  885.00000p    0.         0.         1.7986  
  885.10000p    0.         0.         1.7986  
  885.20000p    0.         0.         1.7986  
  885.30000p    0.         0.         1.7986  
  885.40000p    0.         0.         1.7986  
  885.50000p    0.         0.         1.7986  
  885.60000p    0.         0.         1.7986  
  885.70000p    0.         0.         1.7986  
  885.80000p    0.         0.         1.7986  
  885.90000p    0.         0.         1.7986  
  886.00000p    0.         0.         1.7987  
  886.10000p    0.         0.         1.7987  
  886.20000p    0.         0.         1.7987  
  886.30000p    0.         0.         1.7987  
  886.40000p    0.         0.         1.7987  
  886.50000p    0.         0.         1.7987  
  886.60000p    0.         0.         1.7987  
  886.70000p    0.         0.         1.7987  
  886.80000p    0.         0.         1.7987  
  886.90000p    0.         0.         1.7987  
  887.00000p    0.         0.         1.7987  
  887.10000p    0.         0.         1.7987  
  887.20000p    0.         0.         1.7987  
  887.30000p    0.         0.         1.7987  
  887.40000p    0.         0.         1.7987  
  887.50000p    0.         0.         1.7987  
  887.60000p    0.         0.         1.7987  
  887.70000p    0.         0.         1.7987  
  887.80000p    0.         0.         1.7987  
  887.90000p    0.         0.         1.7987  
  888.00000p    0.         0.         1.7987  
  888.10000p    0.         0.         1.7987  
  888.20000p    0.         0.         1.7987  
  888.30000p    0.         0.         1.7987  
  888.40000p    0.         0.         1.7987  
  888.50000p    0.         0.         1.7987  
  888.60000p    0.         0.         1.7987  
  888.70000p    0.         0.         1.7987  
  888.80000p    0.         0.         1.7987  
  888.90000p    0.         0.         1.7987  
  889.00000p    0.         0.         1.7987  
  889.10000p    0.         0.         1.7987  
  889.20000p    0.         0.         1.7987  
  889.30000p    0.         0.         1.7987  
  889.40000p    0.         0.         1.7987  
  889.50000p    0.         0.         1.7987  
  889.60000p    0.         0.         1.7987  
  889.70000p    0.         0.         1.7987  
  889.80000p    0.         0.         1.7987  
  889.90000p    0.         0.         1.7987  
  890.00000p    0.         0.         1.7987  
  890.10000p    0.         0.         1.7987  
  890.20000p    0.         0.         1.7987  
  890.30000p    0.         0.         1.7987  
  890.40000p    0.         0.         1.7987  
  890.50000p    0.         0.         1.7987  
  890.60000p    0.         0.         1.7987  
  890.70000p    0.         0.         1.7987  
  890.80000p    0.         0.         1.7987  
  890.90000p    0.         0.         1.7987  
  891.00000p    0.         0.         1.7987  
  891.10000p    0.         0.         1.7987  
  891.20000p    0.         0.         1.7987  
  891.30000p    0.         0.         1.7987  
  891.40000p    0.         0.         1.7987  
  891.50000p    0.         0.         1.7987  
  891.60000p    0.         0.         1.7987  
  891.70000p    0.         0.         1.7987  
  891.80000p    0.         0.         1.7987  
  891.90000p    0.         0.         1.7987  
  892.00000p    0.         0.         1.7987  
  892.10000p    0.         0.         1.7987  
  892.20000p    0.         0.         1.7987  
  892.30000p    0.         0.         1.7987  
  892.40000p    0.         0.         1.7987  
  892.50000p    0.         0.         1.7987  
  892.60000p    0.         0.         1.7987  
  892.70000p    0.         0.         1.7987  
  892.80000p    0.         0.         1.7987  
  892.90000p    0.         0.         1.7987  
  893.00000p    0.         0.         1.7987  
  893.10000p    0.         0.         1.7988  
  893.20000p    0.         0.         1.7988  
  893.30000p    0.         0.         1.7988  
  893.40000p    0.         0.         1.7988  
  893.50000p    0.         0.         1.7988  
  893.60000p    0.         0.         1.7988  
  893.70000p    0.         0.         1.7988  
  893.80000p    0.         0.         1.7988  
  893.90000p    0.         0.         1.7988  
  894.00000p    0.         0.         1.7988  
  894.10000p    0.         0.         1.7988  
  894.20000p    0.         0.         1.7988  
  894.30000p    0.         0.         1.7988  
  894.40000p    0.         0.         1.7988  
  894.50000p    0.         0.         1.7988  
  894.60000p    0.         0.         1.7988  
  894.70000p    0.         0.         1.7988  
  894.80000p    0.         0.         1.7988  
  894.90000p    0.         0.         1.7988  
  895.00000p    0.         0.         1.7988  
  895.10000p    0.         0.         1.7988  
  895.20000p    0.         0.         1.7988  
  895.30000p    0.         0.         1.7988  
  895.40000p    0.         0.         1.7988  
  895.50000p    0.         0.         1.7988  
  895.60000p    0.         0.         1.7988  
  895.70000p    0.         0.         1.7988  
  895.80000p    0.         0.         1.7988  
  895.90000p    0.         0.         1.7988  
  896.00000p    0.         0.         1.7988  
  896.10000p    0.         0.         1.7988  
  896.20000p    0.         0.         1.7988  
  896.30000p    0.         0.         1.7988  
  896.40000p    0.         0.         1.7988  
  896.50000p    0.         0.         1.7988  
  896.60000p    0.         0.         1.7988  
  896.70000p    0.         0.         1.7988  
  896.80000p    0.         0.         1.7988  
  896.90000p    0.         0.         1.7988  
  897.00000p    0.         0.         1.7988  
  897.10000p    0.         0.         1.7988  
  897.20000p    0.         0.         1.7988  
  897.30000p    0.         0.         1.7988  
  897.40000p    0.         0.         1.7988  
  897.50000p    0.         0.         1.7988  
  897.60000p    0.         0.         1.7988  
  897.70000p    0.         0.         1.7988  
  897.80000p    0.         0.         1.7988  
  897.90000p    0.         0.         1.7988  
  898.00000p    0.         0.         1.7988  
  898.10000p    0.         0.         1.7988  
  898.20000p    0.         0.         1.7988  
  898.30000p    0.         0.         1.7988  
  898.40000p    0.         0.         1.7988  
  898.50000p    0.         0.         1.7988  
  898.60000p    0.         0.         1.7988  
  898.70000p    0.         0.         1.7988  
  898.80000p    0.         0.         1.7988  
  898.90000p    0.         0.         1.7988  
  899.00000p    0.         0.         1.7988  
  899.10000p    0.         0.         1.7988  
  899.20000p    0.         0.         1.7988  
  899.30000p    0.         0.         1.7988  
  899.40000p    0.         0.         1.7988  
  899.50000p    0.         0.         1.7988  
  899.60000p    0.         0.         1.7988  
  899.70000p    0.         0.         1.7988  
  899.80000p    0.         0.         1.7988  
  899.90000p    0.         0.         1.7988  
  900.00000p    0.         0.         1.7988  
y

          ***** job concluded
 ******  
 ***** nand.sp

 ****** job statistics summary tnom=  25.000 temp=  70.000 ******
  
 ******  Machine Information  ******
 CPU:
 model name	: Intel(R) Xeon(R) Silver 4215R CPU @ 3.20GHz
 cpu MHz	: 3198.917
  
 OS:
 Linux version 3.10.0-514.6.2.el7.x86_64 (mockbuild@x86-017.build.eng.bos.redhat.com) (gcc version 4.8.5 20150623 (Red Hat 4.8.5-11) (GCC) ) #1 SMP Fri Feb 17 19:21:31 EST 2017


  ******  HSPICE Threads Information  ******

  Command Line Threads Count :     1
  Available CPU Count        :     6
  Actual Threads Count       :     1


  ****** Statistics of Ignored Elements ******
  Voltage Sources :       1

  ******  Circuit Statistics  ******
  # nodes       =       6 # elements   =       7
  # resistors   =       0 # capacitors =       0 # inductors   =       0
  # mutual_inds =       0 # vccs       =       0 # vcvs        =       0
  # cccs        =       0 # ccvs       =       0 # volt_srcs   =       3
  # curr_srcs   =       0 # diodes     =       0 # bjts        =       0
  # jfets       =       0 # mosfets    =       4 # U elements  =       0
  # T elements  =       0 # W elements =       0 # B elements  =       0
  # S elements  =       0 # P elements =       0 # va device   =       0
  # vector_srcs =       0 # N elements =       0


  ******  Runtime Statistics (seconds)  ******

  analysis           time    # points   tot. iter  conv.iter
  op point           0.00           1           9
  transient          0.01        9001         230          94 rev=         7
  readin             0.00
  errchk             0.01
  setup              0.00
  output             0.00


           peak memory used        285.07 megabytes
           total cpu time            0.06 seconds
           total elapsed time       57.18 seconds
           job started at     15:43:21 11/18/2024
           job ended   at     15:44:18 11/18/2024



>info:         ***** hspice job concluded
 lic: Release hspice token(s) 
 lic: total license checkout elapse time:       57.09(s)
