Using: /usr/synopsys/HSPICE/hspice/O-2018.09-1/hspice/linux64/hspice  -i 'pmos.sp'
 ****** HSPICE -- O-2018.09-1 linux64 (Sep 27 2018) ******                      
  Copyright (c) 1986 - 2024 by Synopsys, Inc. All Rights Reserved.              
  This software and the associated documentation are proprietary
  to Synopsys, Inc. This software may only be used in accordance
  with the terms and conditions of a written license agreement with
  Synopsys, Inc. All other use, reproduction, or distribution of
  this software is strictly prohibited.
  Input File: pmos.sp                                                           
  Command line options: /usr/synopsys/HSPICE/hspice/O-2018.09-1/hspice/linux64/hspice -i pmos.sp
 lic:  
 lic: FLEXlm: SDK_11.6.9.6 
 lic: USER:   mohammed             HOSTNAME: husynposyseng 
 lic: HOSTID: 005056ba9913         PID:      14746 
 lic: Using FLEXlm license file: 
 lic: 27020@husynposyseng 
 lic: Checkout 1 hspice 
 lic: License/Maintenance for hspice will expire on 31-jan-2026/2024.09 
 lic: 1(in_use)/100(total) FLOATING license(s) on SERVER 27020@husynposyseng 
 lic:   
1****** HSPICE -- O-2018.09-1 linux64 (Sep 27 2018) ******                      
 ******  
 ***** pmos.sp

 ****** circuit name directory
 circuit number to circuit name directory
   number circuitname                     definition         multiplier
        0 main circuit
        1 mmn.                            p105_hvt           1.00 
 ******  
 ***** pmos.sp

 ****** mos   model parameters tnom=  25.000 temp=  25.000 ******
 Model file: /home/mohammed/saed32nm.lib
 Model line:         1860
 Model Name: p105_hvt  
 BSIM4 Model (Level 54)
    MOBMOD = 0
    BINUNIT = 1
    PARAMCHK = 0
    CAPMOD = 2
    DIOMOD = 1
    RDSMOD = 0
    TRNQSMOD = 0
    ACNQSMOD = 0
    RBODYMOD = 0
    RGATEMOD = 0
    PERMOD = 1
    GEOMOD = 0
    RGEOMOD = 0
    FNOIMOD = 1
    TNOIMOD = 0
    IGCMOD = 1
    IGBMOD = 1
    STIMOD = 1
    VBFWDMOD = 0
    VERSION =    4.5 
    TOXREF = 2.62e-09 
    TOXE = 2.62e-09 
    TOXP = 2.3e-09 
    TOXM = 2.62e-09 
    DTOX =      0 
    EPSROX =    3.9 
    CDSC = 0.02157 
    CDSCB =  0.001 
    CDSCD = 0.001494 
    CIT =      0 
    NFACTOR =      1 
    XJ =  1e-07 
    VSAT = 1.606e+05 
    A0 =    4.3 
    AGS =  1.048 
    A1 =      0 
    A2 = 0.3157 
    AT = 0.0017 
    KETA =      0 
    NSUB =  6e+16 
    NDEP = 1.7e+17 
    NSD =  1e+20 
    NGATE = 2.452e+20 
    GAMMA1 =      0 
    GAMMA2 =      0 
    VBX =      0 
    VBM =     -3 
    XT = 1.55e-07 
    K1 =   0.37 
    KT1 = -0.327 
    KT1L = -2.7e-09 
    KT2 = -0.035 
    K2 = -0.02479 
    K3 = -1.284 
    K3B =   0.52 
    LPE0 = 2.05e-08 
    LPEB =  1e-08 
    DVTP0 = 8.467e-06 
    DVTP1 =  3.222 
    W0 =  6e-09 
    DVT0 = 0.6336 
    DVT1 =  1.158 
    DVT2 =   0.12 
    DVT0W = -0.0008095 
    DVT1W = 1.854e+06 
    DVT2W =      1 
    DROUT =   0.56 
    DSUB = 0.4346 
    VTH0 = -0.3406 
    EU =      1 
    UA = 8.24e-13 
    UA1 = 0.0001027 
    UB = 1.714e-18 
    UB1 = -5e-05 
    UC =  1e-10 
    UC1 = -0.000605 
    U0 =    291 
    UTE =  -1.72 
    VOFF =  -0.13 
    VOFFL = -3.507e-09 
    MINV =    0.5 
    FPROUT =     60 
    PDITS = 0.8644 
    PDITSD = 0.7248 
    PDITSL =  1e+06 
    DELTA =   0.01 
    RDSW =    160 
    RDSWMIN =      0 
    RDWMIN =      0 
    RSWMIN =      0 
    RDW =    100 
    RSW =    100 
    PRWG =      0 
    PRWB =      0 
    PRT =  0.009 
    ETA0 = 0.04493 
    ETAB = -0.04419 
    PCLM = 0.06233 
    PDIBLC1 = 1.014e-07 
    PDIBLC2 = 1.5e-05 
    PDIBLCB =      0 
    PSCBE1 =  5e+09 
    PSCBE2 =  5e-06 
    PVAG =      0 
    WR =      1 
    DWG =      0 
    DWB =      0 
    XW =      0 
    XWREF =      0 
    XL = 2.3e-09 
    XLREF = 2.3e-09 
    B0 =      0 
    B1 =      0 
    ALPHA0 = 8.656e-12 
    ALPHA1 =      0 
    AGIDL = 1.19e-11 
    BGIDL = 3.415e+08 
    CGIDL =     15 
    PHIN =      0 
    EGIDL =  1e-08 
    AIGC = 0.007152 
    BIGC = 0.001215 
    CIGC =    0.1 
    AIGSD = 0.004214 
    BIGSD =      0 
    CIGSD =      0 
    AIGBACC = 0.01249 
    BIGBACC = 0.00233 
    CIGBACC = -1e-10 
    AIGBINV = 0.01311 
    BIGBINV = 0.002519 
    CIGBINV = 0.0005126 
    NIGC =   1.77 
    NIGBINV =      1 
    NIGBACC =  2.856 
    NTOX =      1 
    EIGBINV = 1.726e-06 
    PIGCD =      1 
    POXEDGE =  1.467 
    XRCRG1 =     12 
    TNOIA =    1.5 
    TNOIB =    3.5 
    NTNOI =      1 
    XRCRG2 =      1 
    BETA0 =      6 
    IJTHDFWD =    0.1 
    IJTHSFWD =    0.1 
    IJTHDREV =    0.1 
    IJTHSREV =    0.1 
    XJBVD =      1 
    XJBVS =      1 
    BVD =     12 
    BVS =     12 
    VFB =     -1 
    GBMIN =  1e-12 
    RBDB =     50 
    RBPB =     50 
    RBSB =     50 
    RBPS =     50 
    RBPD =     50 
    CGSL = 1.121e-10 
    CGDL = 1.121e-10 
    CKAPPAS =  2.973 
    CKAPPAD =  2.973 
    CF =      0 
    CLC =      0 
    CLE =    0.6 
    DWC =      0 
    DLC = 5.028e-09 
    DLCIG =  7e-09 
    DWJ =      0 
    VFBCV =     -1 
    ACDE =    0.5 
    MOIN =      5 
    NOFF =  2.401 
    VOFFCV = -0.075 
    DMCG =  7e-08 
    DMCI = 3.5e-08 
    DMDG =  6e-08 
    DMCGT =      0 
    XGW =  4e-08 
    XGL = -2e-09 
    RSHG =     11 
    NGCON =      1 
    TCJ = 0.0008822 
    TPB = 0.001392 
    TCJSW = 0.0007589 
    TPBSW = 0.0009973 
    TCJSWG = 0.0007282 
    TPBSWG = 0.0003417 
    SK0 =      0 
    SK1 =      0 
    SK2 =      0 
    SL =  2e-06 
    SW =  2e-06 
    K =      0 
    LNFACTOR =  0.045 
    LLPE0 = 2.3e-09 
    LDVT0 = 0.09729 
    LUTE = 0.0425 
    LMINV = -0.026 
    LETAB = 0.001264 
    LAIGC = -1.69e-05 
    LNOFF = 0.05705 
    LVOFFCV = -0.0034 
    WU0 =  4.544 
    PVSAT =   10.2 
    PDSUB = 0.0003 
    TNOM =  298.1 
    CGSO = 6.259e-11 
    CGDO = 6.259e-11 
    CGBO =      0 
    XPART =      0 
    RSH =      9 
    JSS = 8.942e-07 
    JSWS = 2.348e-13 
    JSWGS = 2.339e-13 
    PBS = 0.6893 
    MJS = 0.3146 
    PBSWS = 0.2669 
    MJSWS = 0.1452 
    CJS = 0.1935 
    CJSWS = 6.5e-11 
    NJS =  1.098 
    PBSWGS =   0.65 
    MJSWGS =  0.564 
    CJSWGS =  3e-10 
    XTIS =      3 
    JSD = 8.942e-07 
    JSWD = 2.348e-13 
    JSWGD = 2.339e-13 
    PBD = 0.6893 
    MJD = 0.3146 
    PBSWD = 0.2669 
    MJSWD = 0.1452 
    CJD = 0.1935 
    CJSWD = 6.5e-11 
    NJD =  1.098 
    PBSWGD =   0.65 
    MJSWGD =  0.564 
    CJSWGD =  3e-10 
    XTID =      3 
    LMLT =      1 
    WMLT =      1 
    LINT =      0 
    LL =      0 
    LLC =      0 
    LLN =      1 
    LW =      0 
    LWC =      0 
    LWN =      1 
    LWL =      0 
    LWLC =      0 
    LMIN =      0 
    LMAX =      1 
    WINT =      0 
    WL =      0 
    WLC =      0 
    WLN =      1 
    WW =      0 
    WWC =      0 
    WWN =      1 
    WWL =      0 
    WWLC =      0 
    WMIN =      0 
    WMAX =      1 
    NOIA = 1.077e+42 
    NOIB = 4.77e+22 
    NOIC = 1.699e+10 
    EM = 4.1e+07 
    EF =   1.04 
    AF =      1 
    KF =      0 
    TRS =      0 
    TRD =      0 
    TEMPMOD  =      1 
    LAMBDA   =      0 
    VTL      =  2e+05 m/s
    LC       =  5e-09 
    XN       =      3 
    LLAMBDA  =      0 
    LVTL     =      0 
    LXN      =      0 
    WLAMBDA  =      0 
    WVTL     =      0 
    WXN      =      0 
    PLAMBDA  =      0 
    PVTL     =      0 
    PXN      =      0 
    RNOIA    =  0.577 
    RNOIB    = 0.5164 
    SAREF(SA0) = 4.48e-07 m
    SBREF(SB0) = 4.48e-07 m
    WLOD     =      0 m
    KU0      = -1.31e-09 1/m
    KVSAT    =      0 
    KVTH0    = -1.18e-09 m
    TKU0     =      0 
    LLODKU0  =      0 
    WLODKU0  =      0 
    LLODVTH  =      0 
    WLODVTH  =      0 
    LKU0     =      0 
    WKU0     =      0 
    PKU0     =      0 
    LKVTH0   =      0 
    WKVTH0   =      0 
    PKVTH0   =      0 
    STK2     =      0 
    LODK2    =      1 
    STETA0   =      0 
    LODETA0  =      1 
    LXRCRG1  =      0 
    WXRCRG1  =      0 
    PXRCRG1  =      0 
    LXRCRG2  =      0 
    WXRCRG2  =      0 
    PXRCRG2  =      0 
     *** UCB's BSIM4.4.0 new diode model is activated. ***
    *** UCB's Diode Model Parameters ***
    JTSS         = 0.0017 
    JTSSWS       =  1e-11 
    JTSSWGS      = 7.788e-10 
    JTSD         = 0.0017 
    JTSSWD       =  1e-11 
    JTSSWGD      = 7.788e-10 
    NJTS         =     20 
    NJTSSW       =     20 
    NJTSSWG      =  2.887 
    XTSS         =   0.02 
    XTSSWS       =   0.02 
    XTSSWGS      = 0.08619 
    XTSD         =   0.02 
    XTSSWD       =   0.02 
    XTSSWGD      = 0.08619 
    TNJTS        =      0 
    TNJTSSW      =      0 
    TNJTSSWG     =   0.32 
    VFBSDOFF     =      0 
    LVFBSDOFF    =      0 
    WVFBSDOFF    =      0 
    PVFBSDOFF    =      0 
    LINTNOI      =      0 
    VTSS         =     10 
    VTSD         =     10 
    VTSSWS       =     10 
    VTSSWD       =     10 
    VTSSWGS      =      1 
    VTSSWGD      =      1 
    TTDIOMOD     =      1 
     *** UCB's BSIM4.5.0 new model is activated. ***
    UD         =      0 
    UD1        =      0 
    UP         =  0.262 
    LP         = 3.199e-07 
    TVOFF      =      0 
    TVFBSDOFF  =      0 
    RBPS0      =     50 
    RBPSL      =      0 
    RBPSW      =      0 
    RBPSNF     =      0 
    RBPD0      =     50 
    RBPDL      =      0 
    RBPDW      =      0 
    RBPDNF     =      0 
    RBPBX0     =    100 
    RBPBXL     =      0 
    RBPBXW     =      0 
    RBPBXNF    =      0 
    RBPBY0     =    100 
    RBPBYL     =      0 
    RBPBYW     =      0 
    RBPBYNF    =      0 
    RBSBX0     =    100 
    RBSBY0     =    100 
    RBDBX0     =    100 
    RBDBY0     =    100 
    RBSDBXL    =      0 
    RBSDBXW    =      0 
    RBSDBXNF   =      0 
    RBSDBYL    =      0 
    RBSDBYW    =      0 
    RBSDBYNF   =      0 
    LUD        =      0 
    LUD1       =      0 
    LUP        =      0 
    LLP        =      0 
    LTVOFF     =      0 
    LTVFBSDOFF =      0 
    WUD        =      0 
    WUD1       =      0 
    WUP        =      0 
    WLP        =      0 
    WTVOFF     =      0 
    WTVFBSDOFF =      0 
    PUD        =      0 
    PUD1       =      0 
    PUP        =      0 
    PLP        =      0 
    PTVOFF     =      0 
    PTVFBSDOFF =      0 
    WEB        = 6.7e+05 
    WEC        = -7e+05 
    KVTH0WE    = -9.23e-07 
    K2WE       =      0 
    KU0WE      =      0 
    SCREF      = 2.5e-06 
    WPEMOD     =      1 
    LKVTH0WE   =      0 
    LK2WE      =      0 
    LKU0WE     =      0 
    WKVTH0WE   =      0 
    WK2WE      =      0 
    WKU0WE     =      0 
    PKVTH0WE   =      0 
    PK2WE      =      0 
    PKU0WE     =      0 
  **warning** (pmos.sp:23) Both nodes of element vgnd are connected together; Line ignored.
  
      

Element variations(Local):   element              parameter
 *****************************************************************
 ******  option summary
 ******
 runlvl  = 3         bypass  = 2.0000    
  Opening plot unit= 15
 file=pmos.pa0

 ******
 ***** pmos.sp

 ****** dc transfer curves tnom=  25.000 temp=  70.000 ******
  *** parameter 0:vgs  =    -1.8000        ***
  
x

 volt         current    current    current     current   
             vds        vgs        vvdd        mmn.main   
   -1.80000   184.0277u   87.3148p -6.3642e-20 -184.0277u 
   -1.75000   182.6338u   85.5728p -6.1805e-20 -182.6338u 
   -1.70000   181.1834u   83.8670p -2.1309e-20 -181.1834u 
   -1.65000   179.6746u   82.1964p -2.4694e-20 -179.6746u 
   -1.60000   178.1055u   80.5601p  1.9569e-20 -178.1055u 
   -1.55000   176.4740u   78.9571p -9.7294e-21 -176.4740u 
   -1.50000   174.7782u   77.3865p  2.5783e-20 -174.7782u 
   -1.45000   173.0160u   75.8472p -1.1547e-20 -173.0160u 
   -1.40000   171.1853u   74.3384p  1.6939e-20 -171.1853u 
   -1.35000   169.2838u   72.8589p  4.0664e-20 -169.2838u 
   -1.30000   167.3092u   71.4078p -1.4016e-19 -167.3092u 
   -1.25000   165.2591u   69.9838p -2.0232e-20 -165.2591u 
   -1.20000   163.1308u   68.5860p -2.3667e-20 -163.1308u 
   -1.15000   160.9216u   67.2132p  3.1245e-20 -160.9216u 
   -1.10000   158.6284u   65.8641p  3.2284e-20 -158.6284u 
   -1.05000   156.2477u   64.5374p  1.1978e-20 -156.2477u 
   -1.00000   153.7759u   63.2320p -8.3028e-20 -153.7759u 
 -950.00000m  151.2083u   61.9463p  3.2172e-21 -151.2083u 
 -900.00000m  148.5398u   60.6791p -3.2815e-20 -148.5398u 
 -850.00000m  145.7642u   59.4288p -1.8276e-20 -145.7642u 
 -800.00000m  142.8735u   58.1940p -9.7777e-20 -142.8735u 
 -750.00000m  139.8579u   56.9733p  1.2402e-19 -139.8579u 
 -700.00000m  136.7040u   55.7655p -9.7976e-21 -136.7040u 
 -650.00000m  133.3939u   54.5693p  4.9058e-20 -133.3939u 
 -600.00000m  129.9012u   53.3841p  7.0953e-20 -129.9012u 
 -550.00000m  126.1867u   52.2100p -4.5383e-20 -126.1867u 
 -500.00000m  122.1872u   51.0484p -9.9286e-21 -122.1872u 
 -450.00000m  117.7946u   49.9039p -5.2387e-20 -117.7946u 
 -400.00000m  112.8097u   48.7868p  1.0048e-20 -112.8097u 
 -350.00000m  106.8406u   47.7212p  1.3475e-19 -106.8406u 
 -300.00000m   99.1256u   46.7581p -7.3737e-20  -99.1256u 
 -250.00000m   88.5631u   45.9773p -6.2457e-20  -88.5631u 
 -200.00000m   74.7023u   45.4109p  1.7669e-19  -74.7023u 
 -150.00000m   58.3034u   44.9888p -5.6958e-21  -58.3034u 
 -100.00000m   40.1779u   44.6327p -8.5417e-21  -40.1779u 
  -50.00000m   20.7016u   44.3146p -2.1628e-19  -20.7016u 
    0.        -21.9202p   43.8670p -2.6638e-19   21.9202p 
y
 ******
 ***** pmos.sp

 ****** dc transfer curves tnom=  25.000 temp=  70.000 ******
  *** parameter 0:vgs  =    -1.6000        ***
  
x

 volt         current    current    current     current   
             vds        vgs        vvdd        mmn.main   
   -1.80000   162.1466u   39.2009p -6.0248e-21 -162.1466u 
   -1.75000   160.8153u   38.4609p -1.4543e-20 -160.8153u 
   -1.70000   159.4352u   37.7348p -6.6310e-20 -159.4352u 
   -1.65000   158.0047u   37.0223p -1.9860e-20 -158.0047u 
   -1.60000   156.5222u   36.3230p -1.6978e-20 -156.5222u 
   -1.55000   154.9861u   35.6367p  9.8612e-20 -154.9861u 
   -1.50000   153.3949u   34.9640p -6.2786e-20 -153.3949u 
   -1.45000   151.7467u   34.3044p -1.0590e-19 -151.7467u 
   -1.40000   150.0400u   33.6576p  6.5478e-21 -150.0400u 
   -1.35000   148.2729u   33.0232p  1.8671e-20 -148.2729u 
   -1.30000   146.4437u   32.4006p  1.4132e-20 -146.4437u 
   -1.25000   144.5503u   31.7895p  8.4951e-20 -144.5503u 
   -1.20000   142.5907u   31.1893p  6.7043e-20 -142.5907u 
   -1.15000   140.5627u   30.5997p  1.1984e-20 -140.5627u 
   -1.10000   138.4639u   30.0200p -1.8904e-20 -138.4639u 
   -1.05000   136.2917u   29.4498p -4.2030e-20 -136.2917u 
   -1.00000   134.0432u   28.8885p  5.5199e-20 -134.0432u 
 -950.00000m  131.7148u   28.3355p  8.1544e-21 -131.7148u 
 -900.00000m  129.3028u   27.7902p -3.3920e-20 -129.3028u 
 -850.00000m  126.8024u   27.2519p  5.0398e-20 -126.8024u 
 -800.00000m  124.2079u   26.7201p  7.6284e-20 -124.2079u 
 -750.00000m  121.5122u   26.1940p  6.4531e-21 -121.5122u 
 -700.00000m  118.7060u   25.6730p -1.6958e-20 -118.7060u 
 -650.00000m  115.7768u   25.1565p  3.0073e-20 -115.7768u 
 -600.00000m  112.7072u   24.6442p  4.2443e-20 -112.7072u 
 -550.00000m  109.4719u   24.1356p -8.1367e-21 -109.4719u 
 -500.00000m  106.0315u   23.6309p -3.0856e-21 -106.0315u 
 -450.00000m  102.3211u   23.1311p  3.0609e-20 -102.3211u 
 -400.00000m   98.2255u   22.6384p  1.9431e-20  -98.2255u 
 -350.00000m   93.5216u   22.1588p  9.8422e-21  -93.5216u 
 -300.00000m   87.7462u   21.7060p  2.2442e-20  -87.7462u 
 -250.00000m   79.9694u   21.3098p  4.6762e-20  -79.9694u 
 -200.00000m   68.9862u   21.0114p -1.3778e-19  -68.9862u 
 -150.00000m   54.6834u   20.8120p -1.0276e-19  -54.6834u 
 -100.00000m   38.0340u   20.6692p -2.3375e-20  -38.0340u 
  -50.00000m   19.7225u   20.5564p -1.4042e-19  -19.7225u 
    0.        -10.1917p   20.3896p -1.0156e-19   10.1917p 
y
 ******
 ***** pmos.sp

 ****** dc transfer curves tnom=  25.000 temp=  70.000 ******
  *** parameter 0:vgs  =    -1.4000        ***
  
x

 volt         current    current    current     current   
             vds        vgs        vvdd        mmn.main   
   -1.80000   139.7519u   17.3092p -1.5247e-20 -139.7519u 
   -1.75000   138.4751u   17.0042p -4.3126e-20 -138.4751u 
   -1.70000   137.1570u   16.7045p  8.9497e-21 -137.1570u 
   -1.65000   135.7963u   16.4099p -1.6391e-20 -135.7963u 
   -1.60000   134.3919u   16.1201p -4.3274e-20 -134.3919u 
   -1.55000   132.9426u   15.8351p  4.1788e-20 -132.9426u 
   -1.50000   131.4470u   15.5548p -6.5952e-20 -131.4470u 
   -1.45000   129.9040u   15.2788p  3.5696e-20 -129.9040u 
   -1.40000   128.3122u   15.0072p -5.1032e-20 -128.3122u 
   -1.35000   126.6704u   14.7399p  4.7979e-20 -126.6704u 
   -1.30000   124.9770u   14.4778p -6.0679e-21 -124.9770u 
   -1.25000   123.2306u   14.2206p -7.6052e-20 -123.2306u 
   -1.20000   121.4298u   13.9681p  9.1025e-21 -121.4298u 
   -1.15000   119.5728u   13.7201p -1.4359e-22 -119.5728u 
   -1.10000   117.6579u   13.4765p -3.6004e-20 -117.6579u 
   -1.05000   115.6832u   13.2369p  4.3329e-20 -115.6832u 
   -1.00000   113.6463u   13.0012p  1.9438e-20 -113.6463u 
 -950.00000m  111.5449u   12.7691p  2.3230e-20 -111.5449u 
 -900.00000m  109.3761u   12.5404p -2.5315e-20 -109.3761u 
 -850.00000m  107.1365u   12.3147p -1.5187e-20 -107.1365u 
 -800.00000m  104.8220u   12.0919p -9.9228e-20 -104.8220u 
 -750.00000m  102.4277u   11.8715p  6.3810e-20 -102.4277u 
 -700.00000m   99.9471u   11.6534p  2.4124e-20  -99.9471u 
 -650.00000m   97.3720u   11.4372p  6.1375e-20  -97.3720u 
 -600.00000m   94.6910u   11.2227p  1.6705e-20  -94.6910u 
 -550.00000m   91.8880u   11.0097p -4.7567e-20  -91.8880u 
 -500.00000m   88.9390u   10.7981p  7.8256e-20  -88.9390u 
 -450.00000m   85.8058u   10.5880p  5.8528e-20  -85.8058u 
 -400.00000m   82.4234u   10.3799p  4.2885e-20  -82.4234u 
 -350.00000m   78.6708u   10.1751p  2.0672e-20  -78.6708u 
 -300.00000m   74.3003u    9.9768p  4.1168e-20  -74.3003u 
 -250.00000m   68.7609u    9.7929p  5.4834e-20  -68.7609u 
 -200.00000m   60.9179u    9.6411p -3.7108e-20  -60.9179u 
 -150.00000m   49.5607u    9.5405p  6.6920e-20  -49.5607u 
 -100.00000m   35.0286u    9.4829p -6.1703e-20  -35.0286u 
  -50.00000m   18.3444u    9.4490p  1.2826e-19  -18.3444u 
    0.         -4.6967p    9.3949p -1.0590e-19    4.6967p 
y
 ******
 ***** pmos.sp

 ****** dc transfer curves tnom=  25.000 temp=  70.000 ******
  *** parameter 0:vgs  =    -1.2000        ***
  
x

 volt         current    current    current     current   
             vds        vgs        vvdd        mmn.main   
   -1.80000   116.8470u    7.3965p  2.6675e-20 -116.8470u 
   -1.75000   115.6171u    7.2792p  6.4775e-20 -115.6171u 
   -1.70000   114.3533u    7.1634p -6.7502e-20 -114.3533u 
   -1.65000   113.0548u    7.0493p  8.2371e-20 -113.0548u 
   -1.60000   111.7207u    6.9366p  5.6065e-20 -111.7207u 
   -1.55000   110.3501u    6.8255p  3.4195e-20 -110.3501u 
   -1.50000   108.9423u    6.7158p  2.6629e-20 -108.9423u 
   -1.45000   107.4962u    6.6074p  2.2080e-20 -107.4962u 
   -1.40000   106.0111u    6.5003p -1.4629e-20 -106.0111u 
   -1.35000   104.4860u    6.3944p -2.3293e-20 -104.4860u 
   -1.30000   102.9199u    6.2897p -3.6595e-20 -102.9199u 
   -1.25000   101.3119u    6.1861p  1.9883e-20 -101.3119u 
   -1.20000    99.6609u    6.0834p  3.8962e-21  -99.6609u 
   -1.15000    97.9658u    5.9821p -2.9537e-20  -97.9658u 
   -1.10000    96.2253u    5.8827p -1.6537e-20  -96.2253u 
   -1.05000    94.4382u    5.7853p  6.7774e-20  -94.4382u 
   -1.00000    92.6028u    5.6896p -1.9222e-21  -92.6028u 
 -950.00000m   90.7176u    5.5957p -2.1077e-20  -90.7176u 
 -900.00000m   88.7804u    5.5034p  5.5930e-20  -88.7804u 
 -850.00000m   86.7891u    5.4127p -1.1759e-20  -86.7891u 
 -800.00000m   84.7410u    5.3233p -6.6583e-20  -84.7410u 
 -750.00000m   82.6325u    5.2351p  7.5197e-20  -82.6325u 
 -700.00000m   80.4597u    5.1481p -2.7926e-20  -80.4597u 
 -650.00000m   78.2172u    5.0621p -6.3800e-20  -78.2172u 
 -600.00000m   75.8979u    4.9771p  1.0840e-19  -75.8979u 
 -550.00000m   73.4921u    4.8928p  9.6062e-21  -73.4921u 
 -500.00000m   70.9858u    4.8092p  1.9658e-21  -70.9858u 
 -450.00000m   68.3574u    4.7263p  2.6408e-20  -68.3574u 
 -400.00000m   65.5718u    4.6442p -4.1095e-20  -65.5718u 
 -350.00000m   62.5666u    4.5631p  2.6374e-20  -62.5666u 
 -300.00000m   59.2195u    4.4836p  1.6084e-20  -59.2195u 
 -250.00000m   55.2612u    4.4076p  7.3606e-21  -55.2612u 
 -200.00000m   50.0401u    4.3397p -1.6373e-20  -50.0401u 
 -150.00000m   42.1989u    4.2898p  1.4011e-19  -42.1989u 
 -100.00000m   30.7121u    4.2656p -3.3342e-20  -30.7121u 
  -50.00000m   16.3587u    4.2595p  2.8568e-20  -16.3587u 
    0.         -2.1238p    4.2479p -1.5674e-19    2.1238p 
y
 ******
 ***** pmos.sp

 ****** dc transfer curves tnom=  25.000 temp=  70.000 ******
  *** parameter 0:vgs  =    -1.0000        ***
  
x

 volt         current    current    current     current   
             vds        vgs        vvdd        mmn.main   
   -1.80000    93.4118u    2.9543p -9.4600e-21  -93.4118u 
   -1.75000    92.2204u    2.9167p -9.4875e-20  -92.2204u 
   -1.70000    91.0025u    2.8793p  3.0434e-20  -91.0025u 
   -1.65000    89.7574u    2.8421p -3.1581e-20  -89.7574u 
   -1.60000    88.4848u    2.8051p -9.3864e-20  -88.4848u 
   -1.55000    87.1840u    2.7682p -2.5597e-20  -87.1840u 
   -1.50000    85.8547u    2.7315p -6.6548e-20  -85.8547u 
   -1.45000    84.4962u    2.6949p -6.9970e-20  -84.4962u 
   -1.40000    83.1082u    2.6583p -6.0061e-20  -83.1082u 
   -1.35000    81.6902u    2.6219p  2.3288e-20  -81.6902u 
   -1.30000    80.2415u    2.5855p -1.1182e-19  -80.2415u 
   -1.25000    78.7616u    2.5491p -2.7113e-20  -78.7616u 
   -1.20000    77.2499u    2.5127p -3.1131e-21  -77.2499u 
   -1.15000    75.7059u    2.4762p  9.7070e-20  -75.7059u 
   -1.10000    74.1287u    2.4397p -1.0033e-20  -74.1287u 
   -1.05000    72.5177u    2.4030p  9.9746e-20  -72.5177u 
   -1.00000    70.8719u    2.3663p  3.2004e-20  -70.8719u 
 -950.00000m   69.1902u    2.3296p -1.1067e-19  -69.1902u 
 -900.00000m   67.4716u    2.2939p  1.9043e-20  -67.4716u 
 -850.00000m   65.7146u    2.2591p  3.8234e-20  -65.7146u 
 -800.00000m   63.9175u    2.2251p -2.9046e-20  -63.9175u 
 -750.00000m   62.0784u    2.1919p -6.0212e-21  -62.0784u 
 -700.00000m   60.1949u    2.1595p -9.1254e-20  -60.1949u 
 -650.00000m   58.2637u    2.1278p -3.3800e-20  -58.2637u 
 -600.00000m   56.2810u    2.0967p  1.1449e-20  -56.2810u 
 -550.00000m   54.2415u    2.0661p -3.5529e-20  -54.2415u 
 -500.00000m   52.1378u    2.0362p -8.8523e-21  -52.1378u 
 -450.00000m   49.9590u    2.0067p -7.7773e-20  -49.9590u 
 -400.00000m   47.6881u    1.9778p -7.7383e-20  -47.6881u 
 -350.00000m   45.2964u    1.9494p -1.7629e-22  -45.2964u 
 -300.00000m   42.7303u    1.9217p -6.2375e-21  -42.7303u 
 -250.00000m   39.8778u    1.8950p  5.9032e-20  -39.8778u 
 -200.00000m   36.4679u    1.8702p -2.0507e-20  -36.4679u 
 -150.00000m   31.7685u    1.8498p -1.8912e-20  -31.7685u 
 -100.00000m   24.2690u    1.8394p  5.0070e-20  -24.2690u 
  -50.00000m   13.3587u    1.8409p -1.4592e-19  -13.3587u 
    0.       -921.4881f    1.8430p -4.8093e-20  921.4881f 
y
 ******
 ***** pmos.sp

 ****** dc transfer curves tnom=  25.000 temp=  70.000 ******
  *** parameter 0:vgs  =  -800.0000m       ***
  
x

 volt         current    current    current     current   
             vds        vgs        vvdd        mmn.main   
   -1.80000    69.2183u  996.2251f  3.6015e-20  -69.2183u 
   -1.75000    68.0473u  991.9347f -7.9004e-20  -68.0473u 
   -1.70000    66.8565u  987.3159f -3.7815e-20  -66.8565u 
   -1.65000    65.6458u  982.3624f  2.4111e-21  -65.6458u 
   -1.60000    64.4151u  977.0682f  1.5647e-20  -64.4151u 
   -1.55000    63.1642u  971.4266f  3.2691e-20  -63.1642u 
   -1.50000    61.8929u  965.4311f -1.8655e-20  -61.8929u 
   -1.45000    60.6013u  959.0748f  5.0571e-20  -60.6013u 
   -1.40000    59.2893u  952.3505f -1.0215e-19  -59.2893u 
   -1.35000    57.9567u  945.2506f -1.3971e-20  -57.9567u 
   -1.30000    56.6034u  937.7671f -2.5808e-20  -56.6034u 
   -1.25000    55.2295u  929.8917f -2.8439e-21  -55.2295u 
   -1.20000    53.8348u  921.6153f -9.2193e-20  -53.8348u 
   -1.15000    52.4192u  912.9284f -6.7472e-20  -52.4192u 
   -1.10000    50.9825u  903.8206f  5.1435e-20  -50.9825u 
   -1.05000    49.5245u  894.2811f -1.6466e-20  -49.5245u 
   -1.00000    48.0450u  884.2979f -3.5120e-20  -48.0450u 
 -950.00000m   46.5438u  873.8583f  1.1793e-20  -46.5438u 
 -900.00000m   45.0204u  862.9489f -9.7038e-20  -45.0204u 
 -850.00000m   43.4743u  851.5554f -4.6101e-20  -43.4743u 
 -800.00000m   41.9049u  839.6651f  2.6912e-20  -41.9049u 
 -750.00000m   40.3116u  827.5764f -2.1786e-20  -40.3116u 
 -700.00000m   38.6935u  816.0969f  9.6183e-20  -38.6935u 
 -650.00000m   37.0494u  805.2247f  1.2864e-20  -37.0494u 
 -600.00000m   35.3781u  794.9411f  1.1158e-19  -35.3781u 
 -550.00000m   33.6778u  785.2296f  1.5047e-21  -33.6778u 
 -500.00000m   31.9464u  776.0758f -3.4080e-20  -31.9464u 
 -450.00000m   30.1805u  767.4684f -3.2239e-20  -30.1805u 
 -400.00000m   28.3752u  759.4020f -6.0560e-20  -28.3752u 
 -350.00000m   26.5226u  751.8802f  3.2848e-20  -26.5226u 
 -300.00000m   24.6077u  744.9241f -1.8014e-21  -24.6077u 
 -250.00000m   22.6002u  738.5887f -1.9683e-20  -22.6002u 
 -200.00000m   20.4293u  733.0129f  5.2897e-20  -20.4293u 
 -150.00000m   17.8972u  728.5932f -1.5214e-20  -17.8972u 
 -100.00000m   14.3636u  726.6518f -8.5216e-20  -14.3636u 
  -50.00000m    8.4681u  730.0340f  3.3940e-20   -8.4681u 
    0.       -368.0364f  736.0842f  3.1649e-20  368.0364f 
y
 ******
 ***** pmos.sp

 ****** dc transfer curves tnom=  25.000 temp=  70.000 ******
  *** parameter 0:vgs  =  -600.0000m       ***
  
x

 volt         current    current    current     current   
             vds        vgs        vvdd        mmn.main   
   -1.80000    43.3766u  156.8616f  1.1493e-19  -43.3766u 
   -1.75000    42.1958u  166.4830f -7.8216e-20  -42.1958u 
   -1.70000    41.0041u  175.5945f -2.4577e-20  -41.0041u 
   -1.65000    39.8021u  184.1952f  3.3505e-20  -39.8021u 
   -1.60000    38.5904u  192.2845f  2.9959e-20  -38.5904u 
   -1.55000    37.3698u  199.8618f  2.8250e-20  -37.3698u 
   -1.50000    36.1409u  206.9264f -1.5857e-20  -36.1409u 
   -1.45000    34.9047u  213.4776f  1.5962e-20  -34.9047u 
   -1.40000    33.6621u  219.5147f -5.0862e-20  -33.6621u 
   -1.35000    32.4140u  225.0369f  3.9328e-20  -32.4140u 
   -1.30000    31.1615u  230.0437f  8.9317e-20  -31.1615u 
   -1.25000    29.9057u  234.5341f -1.0973e-20  -29.9057u 
   -1.20000    28.6477u  238.5074f  5.2854e-20  -28.6477u 
   -1.15000    27.3887u  241.9625f -7.1488e-20  -27.3887u 
   -1.10000    26.1301u  244.8987f -4.5657e-20  -26.1301u 
   -1.05000    24.8731u  247.3148f  9.4839e-21  -24.8731u 
   -1.00000    23.6192u  249.2098f  2.9257e-20  -23.6192u 
 -950.00000m   22.3698u  250.5826f  1.2607e-20  -22.3698u 
 -900.00000m   21.1264u  251.4320f  5.2690e-20  -21.1264u 
 -850.00000m   19.8907u  251.7568f  2.7946e-20  -19.8907u 
 -800.00000m   18.6643u  251.5560f  1.5265e-20  -18.6643u 
 -750.00000m   17.4491u  250.8285f  6.4156e-20  -17.4491u 
 -700.00000m   16.2471u  249.5738f -6.4219e-20  -16.2471u 
 -650.00000m   15.0603u  247.7917f -1.4540e-20  -15.0603u 
 -600.00000m   13.8912u  245.4847f  2.2529e-20  -13.8912u 
 -550.00000m   12.7423u  242.9685f  5.0360e-20  -12.7423u 
 -500.00000m   11.6165u  241.0686f  3.6671e-20  -11.6165u 
 -450.00000m   10.5169u  239.8033f  3.1341e-20  -10.5169u 
 -400.00000m    9.4470u  239.1749f  2.2192e-20   -9.4470u 
 -350.00000m    8.4099u  239.1894f -2.9723e-20   -8.4099u 
 -300.00000m    7.4086u  239.8558f  1.1840e-20   -7.4086u 
 -250.00000m    6.4447u  241.1877f -2.3151e-20   -6.4447u 
 -200.00000m    5.5155u  243.2080f  1.0136e-20   -5.5155u 
 -150.00000m    4.6066u  245.9645f  3.1765e-20   -4.6066u 
 -100.00000m    3.6572u  249.6028f  1.5172e-20   -3.6572u 
  -50.00000m    2.3735u  254.7689f -2.2786e-20   -2.3735u 
    0.       -130.9462f  261.8949f -2.0284e-21  130.9462f 
y
 ******
 ***** pmos.sp

 ****** dc transfer curves tnom=  25.000 temp=  70.000 ******
  *** parameter 0:vgs  =  -400.0000m       ***
  
x

 volt         current    current    current     current   
             vds        vgs        vvdd        mmn.main   
   -1.80000    16.8832u -176.9335f  2.4312e-20  -16.8832u 
   -1.75000    15.9402u -161.2951f  7.2639e-20  -15.9402u 
   -1.70000    15.0176u -146.2210f -6.9437e-20  -15.0176u 
   -1.65000    14.1172u -131.7113f  1.3082e-20  -14.1172u 
   -1.60000    13.2404u -117.7659f  4.0851e-20  -13.2404u 
   -1.55000    12.3889u -104.3849f -2.9192e-20  -12.3889u 
   -1.50000    11.5641u  -91.5685f  1.3931e-20  -11.5641u 
   -1.45000    10.7673u  -79.3169f -4.2993e-20  -10.7673u 
   -1.40000     9.9996u  -67.6300f -3.8097e-20   -9.9996u 
   -1.35000     9.2622u  -56.5082f  4.0412e-20   -9.2622u 
   -1.30000     8.5558u  -45.9517f -4.5365e-20   -8.5558u 
   -1.25000     7.8812u  -35.9607f  8.8100e-21   -7.8812u 
   -1.20000     7.2389u  -26.5353f  5.1524e-21   -7.2389u 
   -1.15000     6.6292u  -17.6760f -2.1138e-20   -6.6292u 
   -1.10000     6.0522u   -9.3830f -8.3591e-21   -6.0522u 
   -1.05000     5.5079u   -1.6566f -1.5074e-20   -5.5079u 
   -1.00000     4.9960u    5.5028f -2.7624e-20   -4.9960u 
 -950.00000m    4.5162u   12.0950f -7.7516e-21   -4.5162u 
 -900.00000m    4.0678u   18.1196f -1.6000e-20   -4.0678u 
 -850.00000m    3.6501u   23.5762f -9.3661e-21   -3.6501u 
 -800.00000m    3.2623u   28.4644f  1.4270e-20   -3.2623u 
 -750.00000m    2.9035u   32.7841f  5.2809e-21   -2.9035u 
 -700.00000m    2.5726u   36.5348f  9.7225e-21   -2.5726u 
 -650.00000m    2.2685u   39.7161f  7.9575e-21   -2.2685u 
 -600.00000m    1.9901u   42.3280f -4.5318e-21   -1.9901u 
 -550.00000m    1.7362u   44.3700f  5.1795e-21   -1.7362u 
 -500.00000m    1.5056u   45.8421f  8.6412e-22   -1.5056u 
 -450.00000m    1.2970u   46.7444f  1.0211e-20   -1.2970u 
 -400.00000m    1.1093u   47.0796f  3.6201e-21   -1.1093u 
 -350.00000m  941.1036n   47.1622f -2.4106e-21 -941.1036n 
 -300.00000m  791.1963n   47.8167f -3.3240e-21 -791.1963n 
 -250.00000m  658.1356n   49.0590f  3.0438e-21 -658.1356n 
 -200.00000m  540.2655n   50.8885f  1.4545e-21 -540.2655n 
 -150.00000m  435.2698n   53.3080f -3.4229e-21 -435.2698n 
 -100.00000m  338.3929n   56.3287f  2.2878e-21 -338.3929n 
  -50.00000m  229.8600n   60.0110f -6.4001e-22 -229.8600n 
    0.        -32.2386f   64.4781f -3.2173e-21   32.2386f 
y
 ******
 ***** pmos.sp

 ****** dc transfer curves tnom=  25.000 temp=  70.000 ******
  *** parameter 0:vgs  =  -200.0000m       ***
  
x

 volt         current    current    current     current   
             vds        vgs        vvdd        mmn.main   
   -1.80000     2.5126u -295.2661f  1.2510e-21   -2.5126u 
   -1.75000     2.2835u -276.9383f  1.5215e-20   -2.2835u 
   -1.70000     2.0724u -259.1881f -1.5740e-21   -2.0724u 
   -1.65000     1.8781u -242.0155f -1.2229e-20   -1.8781u 
   -1.60000     1.6996u -225.4204f -2.7408e-21   -1.6996u 
   -1.55000     1.5360u -209.4028f  4.6887e-22   -1.5360u 
   -1.50000     1.3861u -193.9628f  6.5891e-21   -1.3861u 
   -1.45000     1.2491u -179.1004f -5.6336e-21   -1.2491u 
   -1.40000     1.1240u -164.8155f -1.6967e-21   -1.1240u 
   -1.35000     1.0099u -151.1082f  2.7901e-21   -1.0099u 
   -1.30000   906.0382n -137.9785f -4.1008e-21 -906.0382n 
   -1.25000   811.5374n -125.4264f -6.6798e-21 -811.5374n 
   -1.20000   725.6799n -113.4519f -5.9881e-22 -725.6799n 
   -1.15000   647.7645n -102.0550f -3.4360e-21 -647.7645n 
   -1.10000   577.1360n  -91.2357f -6.9389e-22 -577.1360n 
   -1.05000   513.1846n  -80.9941f  5.7116e-21 -513.1846n 
   -1.00000   455.3440n  -71.3300f -3.2065e-22 -455.3440n 
 -950.00000m  403.0903n  -62.2435f -1.5297e-22 -403.0903n 
 -900.00000m  355.9397n  -53.7347f  1.4755e-21 -355.9397n 
 -850.00000m  313.4471n  -45.8035f -2.2499e-21 -313.4471n 
 -800.00000m  275.2035n  -38.4499f  3.1059e-21 -275.2035n 
 -750.00000m  240.8342n  -31.6740f  5.4997e-22 -240.8342n 
 -700.00000m  209.9967n  -25.4757f  4.0113e-22 -209.9967n 
 -650.00000m  182.3783n  -19.8550f -5.4874e-22 -182.3783n 
 -600.00000m  157.6942n  -14.8120f  2.5770e-22 -157.6942n 
 -550.00000m  135.6848n  -10.3465f  1.1869e-21 -135.6848n 
 -500.00000m  116.1138n   -6.4588f -4.5759e-22 -116.1138n 
 -450.00000m   98.7652n   -3.1486f -2.2536e-22  -98.7652n 
 -400.00000m   83.4409n -416.0546a  5.0710e-23  -83.4409n 
 -350.00000m   69.9573n    1.7389f -3.6470e-22  -69.9573n 
 -300.00000m   58.1418n    3.3164f -1.7036e-22  -58.1418n 
 -250.00000m   47.8267n    4.3167f  4.5594e-22  -47.8267n 
 -200.00000m   38.8393n    4.7426f  2.1760e-23  -38.8393n 
 -150.00000m   30.9726n    4.9088f -1.5161e-23  -30.9726n 
 -100.00000m   23.8708n    5.6398f -1.7230e-22  -23.8708n 
  -50.00000m   16.2067n    6.9523f  9.7123e-23  -16.2067n 
    0.         -4.4234f    8.8472f  1.1535e-22    4.4234f 
y
 ******
 ***** pmos.sp

 ****** dc transfer curves tnom=  25.000 temp=  70.000 ******
  *** parameter 0:vgs  =     0.            ***
  
x

 volt         current     current     current     current    
             vds         vgs         vvdd        mmn.main    
   -1.80000   215.4369n  -379.1280f  -1.9439e-22 -215.4369n  
   -1.75000   193.5883n  -358.4876f   7.4193e-22 -193.5883n  
   -1.70000   173.7841n  -338.4249f   1.0320e-21 -173.7841n  
   -1.65000   155.8468n  -318.9398f  -1.0604e-21 -155.8468n  
   -1.60000   139.6133n  -300.0324f   7.7690e-22 -139.6133n  
   -1.55000   124.9335n  -281.7027f   2.0469e-22 -124.9335n  
   -1.50000   111.6694n  -263.9506f   9.7261e-23 -111.6694n  
   -1.45000    99.6942n  -246.7763f  -4.1457e-22  -99.6942n  
   -1.40000    88.8918n  -230.1795f  -9.3177e-23  -88.8918n  
   -1.35000    79.1555n  -214.1605f   6.8732e-22  -79.1555n  
   -1.30000    70.3876n  -198.7191f   3.4212e-23  -70.3876n  
   -1.25000    62.4988n  -183.8554f  -2.8822e-22  -62.4988n  
   -1.20000    55.4073n  -169.5694f   3.3414e-23  -55.4073n  
   -1.15000    49.0383n  -155.8610f  -4.4637e-23  -49.0383n  
   -1.10000    43.3236n  -142.7303f  -6.8524e-22  -43.3236n  
   -1.05000    38.2010n  -130.1773f  -8.3408e-23  -38.2010n  
   -1.00000    33.6138n  -118.2020f   4.3494e-23  -33.6138n  
 -950.00000m   29.5104n  -106.8043f   2.6873e-22  -29.5104n  
 -900.00000m   25.8440n   -95.9843f  -1.1332e-22  -25.8440n  
 -850.00000m   22.5720n   -85.7419f  -7.7674e-23  -22.5720n  
 -800.00000m   19.6559n   -76.0772f  -9.7583e-23  -19.6559n  
 -750.00000m   17.0607n   -66.9902f   8.8791e-23  -17.0607n  
 -700.00000m   14.7550n   -58.4809f   3.3663e-24  -14.7550n  
 -650.00000m   12.7103n   -50.5492f   2.9872e-23  -12.7103n  
 -600.00000m   10.9007n   -43.1952f  -6.5065e-23  -10.9007n  
 -550.00000m    9.3032n   -36.4189f   1.2106e-23   -9.3032n  
 -500.00000m    7.8968n   -30.2202f   4.8427e-23   -7.8968n  
 -450.00000m    6.6625n   -24.5992f   4.3835e-23   -6.6625n  
 -400.00000m    5.5832n   -19.5559f  -8.5604e-24   -5.5832n  
 -350.00000m    4.6432n   -15.0902f  -1.9816e-24   -4.6432n  
 -300.00000m    3.8278n   -11.2021f   1.0186e-23   -3.8278n  
 -250.00000m    3.1234n    -7.8918f  -7.3737e-24   -3.1234n  
 -200.00000m    2.5162n    -5.1590f  -4.5524e-24   -2.5162n  
 -150.00000m    1.9906n    -3.0039f  -7.4197e-25   -1.9906n  
 -100.00000m    1.5222n    -1.4263f   1.3953e-23   -1.5222n  
  -50.00000m    1.0261n  -425.9313a  -1.0404e-23   -1.0261n  
    0.        2.3459e-20 -4.7662e-20  3.8968e-24 -2.3444e-20 
y

          ***** job concluded
 ******  
 ***** pmos.sp

 ****** job statistics summary tnom=  25.000 temp=  70.000 ******
  
 ******  Machine Information  ******
 CPU:
 model name	: Intel(R) Xeon(R) Silver 4215R CPU @ 3.20GHz
 cpu MHz	: 3198.917
  
 OS:
 Linux version 3.10.0-514.6.2.el7.x86_64 (mockbuild@x86-017.build.eng.bos.redhat.com) (gcc version 4.8.5 20150623 (Red Hat 4.8.5-11) (GCC) ) #1 SMP Fri Feb 17 19:21:31 EST 2017


  ******  HSPICE Threads Information  ******

  Command Line Threads Count :     1
  Available CPU Count        :     6
  Actual Threads Count       :     1


  ****** Statistics of Ignored Elements ******
  Voltage Sources :       1

  ******  Circuit Statistics  ******
  # nodes       =       4 # elements   =       4
  # resistors   =       0 # capacitors =       0 # inductors   =       0
  # mutual_inds =       0 # vccs       =       0 # vcvs        =       0
  # cccs        =       0 # ccvs       =       0 # volt_srcs   =       3
  # curr_srcs   =       0 # diodes     =       0 # bjts        =       0
  # jfets       =       0 # mosfets    =       1 # U elements  =       0
  # T elements  =       0 # W elements =       0 # B elements  =       0
  # S elements  =       0 # P elements =       0 # va device   =       0
  # vector_srcs =       0 # N elements =       0


  ******  Runtime Statistics (seconds)  ******

  analysis           time    # points   tot. iter  conv.iter
  op point           0.00           1           0
  dc sweep           0.01         370         752
  readin             0.01
  errchk             0.01
  setup              0.00
  output             0.00


           peak memory used        284.32 megabytes
           total cpu time            0.03 seconds
           total elapsed time       45.20 seconds
           job started at     14:16:17 10/28/2024
           job ended   at     14:17:02 10/28/2024



>info:         ***** hspice job concluded
 lic: Release hspice token(s) 
 lic: total license checkout elapse time:       45.16(s)
