Using: /usr/synopsys/HSPICE/hspice/O-2018.09-1/hspice/linux64/hspice  -i 'pmos_2w.sp'
 ****** HSPICE -- O-2018.09-1 linux64 (Sep 27 2018) ******                      
  Copyright (c) 1986 - 2024 by Synopsys, Inc. All Rights Reserved.              
  This software and the associated documentation are proprietary
  to Synopsys, Inc. This software may only be used in accordance
  with the terms and conditions of a written license agreement with
  Synopsys, Inc. All other use, reproduction, or distribution of
  this software is strictly prohibited.
  Input File: pmos_2w.sp                                                        
  Command line options: /usr/synopsys/HSPICE/hspice/O-2018.09-1/hspice/linux64/hspice -i pmos_2w.sp
 lic:  
 lic: FLEXlm: SDK_11.6.9.6 
 lic: USER:   mohammed             HOSTNAME: husynposyseng 
 lic: HOSTID: 005056ba9913         PID:      15314 
 lic: Using FLEXlm license file: 
 lic: 27020@husynposyseng 
 lic: Checkout 1 hspice 
 lic: License/Maintenance for hspice will expire on 31-jan-2026/2024.09 
 lic: 1(in_use)/100(total) FLOATING license(s) on SERVER 27020@husynposyseng 
 lic:   
1****** HSPICE -- O-2018.09-1 linux64 (Sep 27 2018) ******                      
 ******  
 ***** pmos.sp

 ****** circuit name directory
 circuit number to circuit name directory
   number circuitname                     definition         multiplier
        0 main circuit
        1 mmn.                            p105_hvt           1.00 
 ******  
 ***** pmos.sp

 ****** mos   model parameters tnom=  25.000 temp=  25.000 ******
 Model file: /home/mohammed/saed32nm.lib
 Model line:         1860
 Model Name: p105_hvt  
 BSIM4 Model (Level 54)
    MOBMOD = 0
    BINUNIT = 1
    PARAMCHK = 0
    CAPMOD = 2
    DIOMOD = 1
    RDSMOD = 0
    TRNQSMOD = 0
    ACNQSMOD = 0
    RBODYMOD = 0
    RGATEMOD = 0
    PERMOD = 1
    GEOMOD = 0
    RGEOMOD = 0
    FNOIMOD = 1
    TNOIMOD = 0
    IGCMOD = 1
    IGBMOD = 1
    STIMOD = 1
    VBFWDMOD = 0
    VERSION =    4.5 
    TOXREF = 2.62e-09 
    TOXE = 2.62e-09 
    TOXP = 2.3e-09 
    TOXM = 2.62e-09 
    DTOX =      0 
    EPSROX =    3.9 
    CDSC = 0.02157 
    CDSCB =  0.001 
    CDSCD = 0.001494 
    CIT =      0 
    NFACTOR =      1 
    XJ =  1e-07 
    VSAT = 1.606e+05 
    A0 =    4.3 
    AGS =  1.048 
    A1 =      0 
    A2 = 0.3157 
    AT = 0.0017 
    KETA =      0 
    NSUB =  6e+16 
    NDEP = 1.7e+17 
    NSD =  1e+20 
    NGATE = 2.452e+20 
    GAMMA1 =      0 
    GAMMA2 =      0 
    VBX =      0 
    VBM =     -3 
    XT = 1.55e-07 
    K1 =   0.37 
    KT1 = -0.327 
    KT1L = -2.7e-09 
    KT2 = -0.035 
    K2 = -0.02479 
    K3 = -1.284 
    K3B =   0.52 
    LPE0 = 2.05e-08 
    LPEB =  1e-08 
    DVTP0 = 8.467e-06 
    DVTP1 =  3.222 
    W0 =  6e-09 
    DVT0 = 0.6336 
    DVT1 =  1.158 
    DVT2 =   0.12 
    DVT0W = -0.0008095 
    DVT1W = 1.854e+06 
    DVT2W =      1 
    DROUT =   0.56 
    DSUB = 0.4346 
    VTH0 = -0.3406 
    EU =      1 
    UA = 8.24e-13 
    UA1 = 0.0001027 
    UB = 1.714e-18 
    UB1 = -5e-05 
    UC =  1e-10 
    UC1 = -0.000605 
    U0 =    291 
    UTE =  -1.72 
    VOFF =  -0.13 
    VOFFL = -3.507e-09 
    MINV =    0.5 
    FPROUT =     60 
    PDITS = 0.8644 
    PDITSD = 0.7248 
    PDITSL =  1e+06 
    DELTA =   0.01 
    RDSW =    160 
    RDSWMIN =      0 
    RDWMIN =      0 
    RSWMIN =      0 
    RDW =    100 
    RSW =    100 
    PRWG =      0 
    PRWB =      0 
    PRT =  0.009 
    ETA0 = 0.04493 
    ETAB = -0.04419 
    PCLM = 0.06233 
    PDIBLC1 = 1.014e-07 
    PDIBLC2 = 1.5e-05 
    PDIBLCB =      0 
    PSCBE1 =  5e+09 
    PSCBE2 =  5e-06 
    PVAG =      0 
    WR =      1 
    DWG =      0 
    DWB =      0 
    XW =      0 
    XWREF =      0 
    XL = 2.3e-09 
    XLREF = 2.3e-09 
    B0 =      0 
    B1 =      0 
    ALPHA0 = 8.656e-12 
    ALPHA1 =      0 
    AGIDL = 1.19e-11 
    BGIDL = 3.415e+08 
    CGIDL =     15 
    PHIN =      0 
    EGIDL =  1e-08 
    AIGC = 0.007152 
    BIGC = 0.001215 
    CIGC =    0.1 
    AIGSD = 0.004214 
    BIGSD =      0 
    CIGSD =      0 
    AIGBACC = 0.01249 
    BIGBACC = 0.00233 
    CIGBACC = -1e-10 
    AIGBINV = 0.01311 
    BIGBINV = 0.002519 
    CIGBINV = 0.0005126 
    NIGC =   1.77 
    NIGBINV =      1 
    NIGBACC =  2.856 
    NTOX =      1 
    EIGBINV = 1.726e-06 
    PIGCD =      1 
    POXEDGE =  1.467 
    XRCRG1 =     12 
    TNOIA =    1.5 
    TNOIB =    3.5 
    NTNOI =      1 
    XRCRG2 =      1 
    BETA0 =      6 
    IJTHDFWD =    0.1 
    IJTHSFWD =    0.1 
    IJTHDREV =    0.1 
    IJTHSREV =    0.1 
    XJBVD =      1 
    XJBVS =      1 
    BVD =     12 
    BVS =     12 
    VFB =     -1 
    GBMIN =  1e-12 
    RBDB =     50 
    RBPB =     50 
    RBSB =     50 
    RBPS =     50 
    RBPD =     50 
    CGSL = 1.121e-10 
    CGDL = 1.121e-10 
    CKAPPAS =  2.973 
    CKAPPAD =  2.973 
    CF =      0 
    CLC =      0 
    CLE =    0.6 
    DWC =      0 
    DLC = 5.028e-09 
    DLCIG =  7e-09 
    DWJ =      0 
    VFBCV =     -1 
    ACDE =    0.5 
    MOIN =      5 
    NOFF =  2.401 
    VOFFCV = -0.075 
    DMCG =  7e-08 
    DMCI = 3.5e-08 
    DMDG =  6e-08 
    DMCGT =      0 
    XGW =  4e-08 
    XGL = -2e-09 
    RSHG =     11 
    NGCON =      1 
    TCJ = 0.0008822 
    TPB = 0.001392 
    TCJSW = 0.0007589 
    TPBSW = 0.0009973 
    TCJSWG = 0.0007282 
    TPBSWG = 0.0003417 
    SK0 =      0 
    SK1 =      0 
    SK2 =      0 
    SL =  2e-06 
    SW =  2e-06 
    K =      0 
    LNFACTOR =  0.045 
    LLPE0 = 2.3e-09 
    LDVT0 = 0.09729 
    LUTE = 0.0425 
    LMINV = -0.026 
    LETAB = 0.001264 
    LAIGC = -1.69e-05 
    LNOFF = 0.05705 
    LVOFFCV = -0.0034 
    WU0 =  4.544 
    PVSAT =   10.2 
    PDSUB = 0.0003 
    TNOM =  298.1 
    CGSO = 6.259e-11 
    CGDO = 6.259e-11 
    CGBO =      0 
    XPART =      0 
    RSH =      9 
    JSS = 8.942e-07 
    JSWS = 2.348e-13 
    JSWGS = 2.339e-13 
    PBS = 0.6893 
    MJS = 0.3146 
    PBSWS = 0.2669 
    MJSWS = 0.1452 
    CJS = 0.1935 
    CJSWS = 6.5e-11 
    NJS =  1.098 
    PBSWGS =   0.65 
    MJSWGS =  0.564 
    CJSWGS =  3e-10 
    XTIS =      3 
    JSD = 8.942e-07 
    JSWD = 2.348e-13 
    JSWGD = 2.339e-13 
    PBD = 0.6893 
    MJD = 0.3146 
    PBSWD = 0.2669 
    MJSWD = 0.1452 
    CJD = 0.1935 
    CJSWD = 6.5e-11 
    NJD =  1.098 
    PBSWGD =   0.65 
    MJSWGD =  0.564 
    CJSWGD =  3e-10 
    XTID =      3 
    LMLT =      1 
    WMLT =      1 
    LINT =      0 
    LL =      0 
    LLC =      0 
    LLN =      1 
    LW =      0 
    LWC =      0 
    LWN =      1 
    LWL =      0 
    LWLC =      0 
    LMIN =      0 
    LMAX =      1 
    WINT =      0 
    WL =      0 
    WLC =      0 
    WLN =      1 
    WW =      0 
    WWC =      0 
    WWN =      1 
    WWL =      0 
    WWLC =      0 
    WMIN =      0 
    WMAX =      1 
    NOIA = 1.077e+42 
    NOIB = 4.77e+22 
    NOIC = 1.699e+10 
    EM = 4.1e+07 
    EF =   1.04 
    AF =      1 
    KF =      0 
    TRS =      0 
    TRD =      0 
    TEMPMOD  =      1 
    LAMBDA   =      0 
    VTL      =  2e+05 m/s
    LC       =  5e-09 
    XN       =      3 
    LLAMBDA  =      0 
    LVTL     =      0 
    LXN      =      0 
    WLAMBDA  =      0 
    WVTL     =      0 
    WXN      =      0 
    PLAMBDA  =      0 
    PVTL     =      0 
    PXN      =      0 
    RNOIA    =  0.577 
    RNOIB    = 0.5164 
    SAREF(SA0) = 4.48e-07 m
    SBREF(SB0) = 4.48e-07 m
    WLOD     =      0 m
    KU0      = -1.31e-09 1/m
    KVSAT    =      0 
    KVTH0    = -1.18e-09 m
    TKU0     =      0 
    LLODKU0  =      0 
    WLODKU0  =      0 
    LLODVTH  =      0 
    WLODVTH  =      0 
    LKU0     =      0 
    WKU0     =      0 
    PKU0     =      0 
    LKVTH0   =      0 
    WKVTH0   =      0 
    PKVTH0   =      0 
    STK2     =      0 
    LODK2    =      1 
    STETA0   =      0 
    LODETA0  =      1 
    LXRCRG1  =      0 
    WXRCRG1  =      0 
    PXRCRG1  =      0 
    LXRCRG2  =      0 
    WXRCRG2  =      0 
    PXRCRG2  =      0 
     *** UCB's BSIM4.4.0 new diode model is activated. ***
    *** UCB's Diode Model Parameters ***
    JTSS         = 0.0017 
    JTSSWS       =  1e-11 
    JTSSWGS      = 7.788e-10 
    JTSD         = 0.0017 
    JTSSWD       =  1e-11 
    JTSSWGD      = 7.788e-10 
    NJTS         =     20 
    NJTSSW       =     20 
    NJTSSWG      =  2.887 
    XTSS         =   0.02 
    XTSSWS       =   0.02 
    XTSSWGS      = 0.08619 
    XTSD         =   0.02 
    XTSSWD       =   0.02 
    XTSSWGD      = 0.08619 
    TNJTS        =      0 
    TNJTSSW      =      0 
    TNJTSSWG     =   0.32 
    VFBSDOFF     =      0 
    LVFBSDOFF    =      0 
    WVFBSDOFF    =      0 
    PVFBSDOFF    =      0 
    LINTNOI      =      0 
    VTSS         =     10 
    VTSD         =     10 
    VTSSWS       =     10 
    VTSSWD       =     10 
    VTSSWGS      =      1 
    VTSSWGD      =      1 
    TTDIOMOD     =      1 
     *** UCB's BSIM4.5.0 new model is activated. ***
    UD         =      0 
    UD1        =      0 
    UP         =  0.262 
    LP         = 3.199e-07 
    TVOFF      =      0 
    TVFBSDOFF  =      0 
    RBPS0      =     50 
    RBPSL      =      0 
    RBPSW      =      0 
    RBPSNF     =      0 
    RBPD0      =     50 
    RBPDL      =      0 
    RBPDW      =      0 
    RBPDNF     =      0 
    RBPBX0     =    100 
    RBPBXL     =      0 
    RBPBXW     =      0 
    RBPBXNF    =      0 
    RBPBY0     =    100 
    RBPBYL     =      0 
    RBPBYW     =      0 
    RBPBYNF    =      0 
    RBSBX0     =    100 
    RBSBY0     =    100 
    RBDBX0     =    100 
    RBDBY0     =    100 
    RBSDBXL    =      0 
    RBSDBXW    =      0 
    RBSDBXNF   =      0 
    RBSDBYL    =      0 
    RBSDBYW    =      0 
    RBSDBYNF   =      0 
    LUD        =      0 
    LUD1       =      0 
    LUP        =      0 
    LLP        =      0 
    LTVOFF     =      0 
    LTVFBSDOFF =      0 
    WUD        =      0 
    WUD1       =      0 
    WUP        =      0 
    WLP        =      0 
    WTVOFF     =      0 
    WTVFBSDOFF =      0 
    PUD        =      0 
    PUD1       =      0 
    PUP        =      0 
    PLP        =      0 
    PTVOFF     =      0 
    PTVFBSDOFF =      0 
    WEB        = 6.7e+05 
    WEC        = -7e+05 
    KVTH0WE    = -9.23e-07 
    K2WE       =      0 
    KU0WE      =      0 
    SCREF      = 2.5e-06 
    WPEMOD     =      1 
    LKVTH0WE   =      0 
    LK2WE      =      0 
    LKU0WE     =      0 
    WKVTH0WE   =      0 
    WK2WE      =      0 
    WKU0WE     =      0 
    PKVTH0WE   =      0 
    PK2WE      =      0 
    PKU0WE     =      0 
  **warning** (pmos_2w.sp:23) Both nodes of element vgnd are connected together; Line ignored.
  
      

Element variations(Local):   element              parameter
 *****************************************************************
 ******  option summary
 ******
 runlvl  = 3         bypass  = 2.0000    
  Opening plot unit= 15
 file=pmos_2w.pa0

 ******
 ***** pmos.sp

 ****** dc transfer curves tnom=  25.000 temp=  70.000 ******
  *** parameter 0:vgs  =    -1.8000        ***
  
x

 volt         current    current    current     current   
             vds        vgs        vvdd        mmn.main   
   -1.80000   376.0228u  194.2260p  3.7389e-20 -376.0228u 
   -1.75000   372.8767u  189.6540p  8.2240e-20 -372.8767u 
   -1.70000   369.6156u  185.1941p -1.1490e-19 -369.6156u 
   -1.65000   366.2361u  180.8431p -2.6851e-19 -366.2361u 
   -1.60000   362.7344u  176.5979p  1.2729e-19 -362.7344u 
   -1.55000   359.1070u  172.4553p -8.9014e-21 -359.1070u 
   -1.50000   355.3499u  168.4123p -2.8298e-20 -355.3499u 
   -1.45000   351.4595u  164.4657p -3.8749e-20 -351.4595u 
   -1.40000   347.4316u  160.6124p -5.3838e-20 -347.4316u 
   -1.35000   343.2623u  156.8493p -9.0019e-20 -343.2623u 
   -1.30000   338.9472u  153.1732p  1.2474e-20 -338.9472u 
   -1.25000   334.4818u  149.5811p  9.3605e-20 -334.4818u 
   -1.20000   329.8613u  146.0696p  7.1070e-22 -329.8613u 
   -1.15000   325.0806u  142.6357p -3.9164e-20 -325.0806u 
   -1.10000   320.1339u  139.2758p -9.1490e-20 -320.1339u 
   -1.05000   315.0149u  135.9867p -1.0341e-20 -315.0149u 
   -1.00000   309.7164u  132.7650p -4.9144e-20 -309.7164u 
 -950.00000m  304.2300u  129.6071p -4.9411e-22 -304.2300u 
 -900.00000m  298.5459u  126.5096p -9.8208e-20 -298.5459u 
 -850.00000m  292.6519u  123.4688p  2.3046e-20 -292.6519u 
 -800.00000m  286.5329u  120.4813p -1.2698e-21 -286.5329u 
 -750.00000m  280.1695u  117.5438p -5.8419e-21 -280.1695u 
 -700.00000m  273.5357u  114.6529p -1.1893e-19 -273.5357u 
 -650.00000m  266.5955u  111.8062p -1.0312e-19 -266.5955u 
 -600.00000m  259.2970u  109.0019p  1.9665e-19 -259.2970u 
 -550.00000m  251.5612u  106.2399p  6.9528e-22 -251.5612u 
 -500.00000m  243.2613u  103.5232p  2.9546e-20 -243.2613u 
 -450.00000m  234.1793u  100.8608p -3.7929e-20 -234.1793u 
 -400.00000m  223.9125u   98.2741p -7.4697e-20 -223.9125u 
 -350.00000m  211.6712u   95.8123p -2.7186e-20 -211.6712u 
 -300.00000m  195.9391u   93.5792p -1.3763e-19 -195.9391u 
 -250.00000m  174.6063u   91.7297p -3.1432e-19 -174.6063u 
 -200.00000m  146.9479u   90.3133p  9.2877e-20 -146.9479u 
 -150.00000m  114.5025u   89.1833p  1.0053e-19 -114.5025u 
 -100.00000m   78.8072u   88.1865p -2.8325e-19  -78.8072u 
  -50.00000m   40.5620u   87.2699p -1.8279e-19  -40.5620u 
    0.        -43.0273p   86.1054p  4.2236e-19   43.0273p 
y
 ******
 ***** pmos.sp

 ****** dc transfer curves tnom=  25.000 temp=  70.000 ******
  *** parameter 0:vgs  =    -1.6000        ***
  
x

 volt         current    current    current     current   
             vds        vgs        vvdd        mmn.main   
   -1.80000   332.6691u   86.7216p  2.2419e-19 -332.6691u 
   -1.75000   329.6481u   84.7874p -1.4460e-19 -329.6481u 
   -1.70000   326.5273u   82.8970p  2.0702e-20 -326.5273u 
   -1.65000   323.3039u   81.0492p -9.3603e-20 -323.3039u 
   -1.60000   319.9749u   79.2428p -1.4842e-20 -319.9749u 
   -1.55000   316.5373u   77.4771p  3.7396e-20 -316.5373u 
   -1.50000   312.9883u   75.7526p -5.5679e-20 -312.9883u 
   -1.45000   309.3247u   74.0680p  1.0542e-19 -309.3247u 
   -1.40000   305.5435u   72.4221p -5.8126e-20 -305.5435u 
   -1.35000   301.6414u   70.8137p -3.9684e-20 -301.6414u 
   -1.30000   297.6151u   69.2414p -1.8853e-20 -297.6151u 
   -1.25000   293.4611u   67.7041p -8.8788e-20 -293.4611u 
   -1.20000   289.1757u   66.2003p -1.7806e-19 -289.1757u 
   -1.15000   284.7550u   64.7288p -1.9381e-20 -284.7550u 
   -1.10000   280.1945u   63.2881p -2.6655e-20 -280.1945u 
   -1.05000   275.4894u   61.8770p -9.2939e-21 -275.4894u 
   -1.00000   270.6344u   60.4938p -7.2532e-20 -270.6344u 
 -950.00000m  265.6232u   59.1373p -1.0280e-20 -265.6232u 
 -900.00000m  260.4485u   57.8058p  1.5407e-20 -260.4485u 
 -850.00000m  255.1013u   56.4978p  5.4287e-20 -255.1013u 
 -800.00000m  249.5710u   55.2118p -1.2907e-19 -249.5710u 
 -750.00000m  243.8436u   53.9462p -1.2719e-19 -243.8436u 
 -700.00000m  237.9013u   52.6997p -7.0970e-20 -237.9013u 
 -650.00000m  231.7195u   51.4708p -1.3832e-20 -231.7195u 
 -600.00000m  225.2642u   50.2584p  2.1756e-20 -225.2642u 
 -550.00000m  218.4848u   49.0620p  4.5404e-20 -218.4848u 
 -500.00000m  211.3028u   47.8817p -1.3230e-19 -211.3028u 
 -450.00000m  203.5881u   46.7193p  1.9069e-19 -203.5881u 
 -400.00000m  195.1090u   45.5798p  5.7922e-20 -195.1090u 
 -350.00000m  185.4162u   44.4750p  2.6564e-19 -185.4162u 
 -300.00000m  173.5793u   43.4331p  6.1447e-20 -173.5793u 
 -250.00000m  157.7612u   42.5143p  1.7578e-19 -157.7612u 
 -200.00000m  135.6917u   41.7972p  2.4517e-19 -135.6917u 
 -150.00000m  107.3081u   41.2772p -1.9169e-19 -107.3081u 
 -100.00000m   74.5117u   40.8691p  1.3190e-19  -74.5117u 
  -50.00000m   38.5869u   40.5215p  6.8476e-20  -38.5869u 
    0.        -20.0290p   40.0701p -2.3492e-19   20.0290p 
y
 ******
 ***** pmos.sp

 ****** dc transfer curves tnom=  25.000 temp=  70.000 ******
  *** parameter 0:vgs  =    -1.4000        ***
  
x

 volt         current    current    current     current   
             vds        vgs        vvdd        mmn.main   
   -1.80000   288.2870u   38.0739p  2.3808e-21 -288.2870u 
   -1.75000   285.3743u   37.2784p -2.7231e-20 -285.3743u 
   -1.70000   282.3767u   36.4997p  7.0685e-20 -282.3767u 
   -1.65000   279.2921u   35.7371p -1.1151e-19 -279.2921u 
   -1.60000   276.1182u   34.9904p -2.7816e-19 -276.1182u 
   -1.55000   272.8529u   34.2589p -6.9076e-20 -272.8529u 
   -1.50000   269.4939u   33.5421p -4.1304e-20 -269.4939u 
   -1.45000   266.0389u   32.8397p -1.3453e-20 -266.0389u 
   -1.40000   262.4858u   32.1511p -1.0587e-19 -262.4858u 
   -1.35000   258.8321u   31.4764p  1.1791e-19 -258.8321u 
   -1.30000   255.0754u   30.8168p -1.0621e-19 -255.0754u 
   -1.25000   251.2132u   30.1719p -9.6492e-20 -251.2132u 
   -1.20000   247.2428u   29.5410p  1.6292e-20 -247.2428u 
   -1.15000   243.1613u   28.9237p -7.8749e-20 -243.1613u 
   -1.10000   238.9656u   28.3194p -2.9213e-20 -238.9656u 
   -1.05000   234.6523u   27.7275p  1.1613e-19 -234.6523u 
   -1.00000   230.2174u   27.1474p  6.6490e-20 -230.2174u 
 -950.00000m  225.6565u   26.5785p -9.5755e-20 -225.6565u 
 -900.00000m  220.9645u   26.0203p -2.2398e-19 -220.9645u 
 -850.00000m  216.1351u   25.4720p -9.8748e-20 -216.1351u 
 -800.00000m  211.1607u   24.9330p -1.6255e-19 -211.1607u 
 -750.00000m  206.0320u   24.4026p -4.9089e-20 -206.0320u 
 -700.00000m  200.7369u   23.8802p  5.1222e-20 -200.7369u 
 -650.00000m  195.2594u   23.3651p -5.2231e-20 -195.2594u 
 -600.00000m  189.5773u   22.8569p  1.0933e-19 -189.5773u 
 -550.00000m  183.6592u   22.3550p  5.1967e-20 -183.6592u 
 -500.00000m  177.4576u   21.8592p -1.5322e-19 -177.4576u 
 -450.00000m  170.8967u   21.3699p -1.4802e-19 -170.8967u 
 -400.00000m  163.8464u   20.8878p  5.1762e-20 -163.8464u 
 -350.00000m  156.0645u   20.4158p -3.1184e-20 -156.0645u 
 -300.00000m  147.0538u   19.9604p  2.2872e-21 -147.0538u 
 -250.00000m  135.7141u   19.5378p -1.0090e-19 -135.7141u 
 -200.00000m  119.8256u   19.1830p -2.9526e-19 -119.8256u 
 -150.00000m   97.1591u   18.9320p  1.5636e-19  -97.1591u 
 -100.00000m   68.5037u   18.7659p  6.6354e-20  -68.5037u 
  -50.00000m   35.8119u   18.6463p  4.4771e-19  -35.8119u 
    0.         -9.2426p   18.4878p  4.2208e-20    9.2426p 
y
 ******
 ***** pmos.sp

 ****** dc transfer curves tnom=  25.000 temp=  70.000 ******
  *** parameter 0:vgs  =    -1.2000        ***
  
x

 volt         current    current    current     current   
             vds        vgs        vvdd        mmn.main   
   -1.80000   242.8802u   16.1744p  1.3209e-19 -242.8802u 
   -1.75000   240.0603u   15.8666p  7.7184e-20 -240.0603u 
   -1.70000   237.1704u   15.5645p  4.4372e-20 -237.1704u 
   -1.65000   234.2088u   15.2679p  3.7551e-20 -234.2088u 
   -1.60000   231.1742u   14.9765p -3.6214e-20 -231.1742u 
   -1.55000   228.0649u   14.6904p  7.8263e-20 -228.0649u 
   -1.50000   224.8797u   14.4091p  1.3103e-19 -224.8797u 
   -1.45000   221.6170u   14.1327p -4.9030e-20 -221.6170u 
   -1.40000   218.2752u   13.8608p  1.9362e-19 -218.2752u 
   -1.35000   214.8530u   13.5933p  6.2410e-20 -214.8530u 
   -1.30000   211.3488u   13.3300p -4.5172e-20 -211.3488u 
   -1.25000   207.7608u   13.0707p  4.5774e-20 -207.7608u 
   -1.20000   204.0875u   12.8152p -2.0989e-20 -204.0875u 
   -1.15000   200.3270u   12.5640p  2.3346e-20 -200.3270u 
   -1.10000   196.4772u   12.3184p -4.1337e-20 -196.4772u 
   -1.05000   192.5360u   12.0783p  1.8840e-19 -192.5360u 
   -1.00000   188.5009u   11.8434p  1.3611e-19 -188.5009u 
 -950.00000m  184.3688u   11.6136p  1.0279e-19 -184.3688u 
 -900.00000m  180.1366u   11.3884p -1.7341e-19 -180.1366u 
 -850.00000m  175.8000u   11.1677p -5.6874e-20 -175.8000u 
 -800.00000m  171.3544u   10.9513p -1.6197e-19 -171.3544u 
 -750.00000m  166.7935u   10.7387p -8.5793e-20 -166.7935u 
 -700.00000m  162.1098u   10.5298p  1.4754e-20 -162.1098u 
 -650.00000m  157.2934u   10.3243p -5.3589e-20 -157.2934u 
 -600.00000m  152.3307u   10.1219p -2.9411e-20 -152.3307u 
 -550.00000m  147.2032u    9.9225p -6.9448e-20 -147.2032u 
 -500.00000m  141.8834u    9.7257p  8.2519e-20 -141.8834u 
 -450.00000m  136.3293u    9.5317p  7.9779e-20 -136.3293u 
 -400.00000m  130.4715u    9.3404p  7.4219e-20 -130.4715u 
 -350.00000m  124.1862u    9.1525p -6.2936e-20 -124.1862u 
 -300.00000m  117.2297u    8.9693p  1.6811e-19 -117.2297u 
 -250.00000m  109.0650u    8.7944p  3.4209e-20 -109.0650u 
 -200.00000m   98.4016u    8.6371p -3.1763e-20  -98.4016u 
 -150.00000m   82.6208u    8.5174p  1.1270e-19  -82.6208u 
 -100.00000m   59.9025u    8.4487p -2.8695e-19  -59.9025u 
  -50.00000m   31.8233u    8.4155p -7.4967e-20  -31.8233u 
    0.         -4.1855p    8.3716p  1.5121e-19    4.1855p 
y
 ******
 ***** pmos.sp

 ****** dc transfer curves tnom=  25.000 temp=  70.000 ******
  *** parameter 0:vgs  =    -1.0000        ***
  
x

 volt         current    current    current     current   
             vds        vgs        vvdd        mmn.main   
   -1.80000   196.4306u    6.4265p  2.3409e-20 -196.4306u 
   -1.75000   193.6876u    6.3244p  6.8805e-21 -193.6876u 
   -1.70000   190.8889u    6.2236p -8.2522e-20 -190.8889u 
   -1.65000   188.0338u    6.1239p -3.4218e-20 -188.0338u 
   -1.60000   185.1214u    6.0255p  1.6941e-19 -185.1214u 
   -1.55000   182.1509u    5.9281p  3.9135e-20 -182.1509u 
   -1.50000   179.1218u    5.8317p -1.0332e-19 -179.1218u 
   -1.45000   176.0332u    5.7364p  2.8105e-20 -176.0332u 
   -1.40000   172.8844u    5.6419p  2.9611e-20 -172.8844u 
   -1.35000   169.6747u    5.5482p  2.6048e-20 -169.6747u 
   -1.30000   166.4035u    5.4553p  4.9219e-20 -166.4035u 
   -1.25000   163.0699u    5.3631p -6.3265e-20 -163.0699u 
   -1.20000   159.6731u    5.2715p  2.8489e-20 -159.6731u 
   -1.15000   156.2124u    5.1804p -6.2453e-20 -156.2124u 
   -1.10000   152.6866u    5.0898p  2.0511e-20 -152.6866u 
   -1.05000   149.0948u    4.9996p  6.4592e-20 -149.0948u 
   -1.00000   145.4355u    4.9096p  7.3931e-20 -145.4355u 
 -950.00000m  141.7073u    4.8205p -2.7224e-19 -141.7073u 
 -900.00000m  137.9083u    4.7337p -1.9255e-19 -137.9083u 
 -850.00000m  134.0363u    4.6493p -1.1711e-19 -134.0363u 
 -800.00000m  130.0887u    4.5671p  2.0415e-19 -130.0887u 
 -750.00000m  126.0619u    4.4870p  8.5143e-20 -126.0619u 
 -700.00000m  121.9519u    4.4088p -5.4399e-20 -121.9519u 
 -650.00000m  117.7530u    4.3325p -1.5973e-19 -117.7530u 
 -600.00000m  113.4583u    4.2580p  2.2429e-19 -113.4583u 
 -550.00000m  109.0577u    4.1852p -3.1683e-20 -109.0577u 
 -500.00000m  104.5376u    4.1139p -1.8346e-19 -104.5376u 
 -450.00000m   99.8773u    4.0441p -9.0051e-21  -99.8773u 
 -400.00000m   95.0439u    3.9758p -7.8426e-20  -95.0439u 
 -350.00000m   89.9814u    3.9091p  6.5730e-20  -89.9814u 
 -300.00000m   84.5851u    3.8441p  8.3007e-20  -84.5851u 
 -250.00000m   78.6342u    3.7817p  5.7416e-21  -78.6342u 
 -200.00000m   71.5953u    3.7235p -1.4239e-20  -71.5953u 
 -150.00000m   62.0394u    3.6747p  2.9114e-19  -62.0394u 
 -100.00000m   47.1145u    3.6463p  4.4525e-20  -47.1145u 
  -50.00000m   25.8168u    3.6413p  4.3265e-20  -25.8168u 
    0.         -1.8186p    3.6374p -9.6042e-21    1.8186p 
y
 ******
 ***** pmos.sp

 ****** dc transfer curves tnom=  25.000 temp=  70.000 ******
  *** parameter 0:vgs  =  -800.0000m       ***
  
x

 volt         current    current    current     current   
             vds        vgs        vvdd        mmn.main   
   -1.80000   148.6402u    2.1668p  1.2434e-19 -148.6402u 
   -1.75000   145.9405u    2.1494p -1.5900e-19 -145.9405u 
   -1.70000   143.1983u    2.1316p  1.1012e-19 -143.1983u 
   -1.65000   140.4135u    2.1134p -9.7975e-21 -140.4135u 
   -1.60000   137.5861u    2.0948p  2.0726e-21 -137.5861u 
   -1.55000   134.7159u    2.0758p  1.9168e-19 -134.7159u 
   -1.50000   131.8030u    2.0562p -2.5628e-20 -131.8030u 
   -1.45000   128.8474u    2.0362p  8.5215e-20 -128.8474u 
   -1.40000   125.8491u    2.0156p -5.9895e-20 -125.8491u 
   -1.35000   122.8083u    1.9945p -1.3295e-19 -122.8083u 
   -1.30000   119.7251u    1.9729p  2.2083e-20 -119.7251u 
   -1.25000   116.5996u    1.9507p -9.2782e-20 -116.5996u 
   -1.20000   113.4321u    1.9278p -3.8567e-21 -113.4321u 
   -1.15000   110.2225u    1.9044p -1.8108e-19 -110.2225u 
   -1.10000   106.9711u    1.8802p  7.2126e-20 -106.9711u 
   -1.05000   103.6778u    1.8554p -4.7980e-20 -103.6778u 
   -1.00000   100.3427u    1.8299p -3.2919e-20 -100.3427u 
 -950.00000m   96.9657u    1.8036p -9.0825e-20  -96.9657u 
 -900.00000m   93.5465u    1.7766p -5.1850e-20  -93.5465u 
 -850.00000m   90.0847u    1.7488p -1.2520e-19  -90.0847u 
 -800.00000m   86.5800u    1.7201p -1.2036e-21  -86.5800u 
 -750.00000m   83.0314u    1.6912p  1.4485e-19  -83.0314u 
 -700.00000m   79.4380u    1.6636p -9.9345e-20  -79.4380u 
 -650.00000m   75.7984u    1.6375p  6.3922e-20  -75.7984u 
 -600.00000m   72.1111u    1.6126p  1.3726e-20  -72.1111u 
 -550.00000m   68.3735u    1.5891p -1.9868e-19  -68.3735u 
 -500.00000m   64.5824u    1.5668p -1.9666e-19  -64.5824u 
 -450.00000m   60.7328u    1.5457p  1.6008e-19  -60.7328u 
 -400.00000m   56.8167u    1.5259p -3.3765e-20  -56.8167u 
 -350.00000m   52.8201u    1.5074p -1.1634e-19  -52.8201u 
 -300.00000m   48.7164u    1.4901p  1.0202e-19  -48.7164u 
 -250.00000m   44.4499u    1.4743p  4.5086e-20  -44.4499u 
 -200.00000m   39.8874u    1.4602p -6.8970e-20  -39.8874u 
 -150.00000m   34.6546u    1.4486p  1.8245e-19  -34.6546u 
 -100.00000m   27.5481u    1.4421p -1.2890e-19  -27.5481u 
  -50.00000m   16.0923u    1.4464p  2.4971e-21  -16.0923u 
    0.       -727.9408f    1.4559p -3.5759e-20  727.9408f 
y
 ******
 ***** pmos.sp

 ****** dc transfer curves tnom=  25.000 temp=  70.000 ******
  *** parameter 0:vgs  =  -600.0000m       ***
  
x

 volt         current    current    current     current   
             vds        vgs        vvdd        mmn.main   
   -1.80000    98.0698u  360.1467f  1.5264e-19  -98.0698u 
   -1.75000    95.3330u  377.0765f  3.0737e-20  -95.3330u 
   -1.70000    92.5682u  393.0434f  1.5472e-19  -92.5682u 
   -1.65000    89.7766u  408.0443f  1.0663e-19  -89.7766u 
   -1.60000    86.9596u  422.0766f -6.6713e-20  -86.9596u 
   -1.55000    84.1186u  435.1377f  4.6500e-20  -84.1186u 
   -1.50000    81.2556u  447.2249f -8.4263e-20  -81.2556u 
   -1.45000    78.3724u  458.3360f -2.0476e-19  -78.3724u 
   -1.40000    75.4712u  468.4686f -3.1207e-21  -75.4712u 
   -1.35000    72.5543u  477.6206f -6.0062e-22  -72.5543u 
   -1.30000    69.6244u  485.7899f  2.2694e-19  -69.6244u 
   -1.25000    66.6842u  492.9744f -1.4319e-19  -66.6842u 
   -1.20000    63.7368u  499.1723f -1.5383e-19  -63.7368u 
   -1.15000    60.7855u  504.3817f -7.6405e-20  -60.7855u 
   -1.10000    57.8337u  508.6008f  1.2536e-19  -57.8337u 
   -1.05000    54.8854u  511.8279f -6.6785e-20  -54.8854u 
   -1.00000    51.9444u  514.0613f -1.5881e-20  -51.9444u 
 -950.00000m   49.0151u  515.2994f -3.3992e-20  -49.0151u 
 -900.00000m   46.1021u  515.5410f -1.0550e-20  -46.1021u 
 -850.00000m   43.2104u  514.7848f -3.3468e-20  -43.2104u 
 -800.00000m   40.3452u  513.0302f  9.5902e-20  -40.3452u 
 -750.00000m   37.5122u  510.2769f  7.0210e-20  -37.5122u 
 -700.00000m   34.7177u  506.5253f -4.5776e-20  -34.7177u 
 -650.00000m   31.9682u  501.7774f -1.3358e-20  -31.9682u 
 -600.00000m   29.2712u  496.0411f -1.8541e-19  -29.2712u 
 -550.00000m   26.6345u  489.9500f -3.8626e-20  -26.6345u 
 -500.00000m   24.0668u  485.1584f  2.5302e-20  -24.0668u 
 -450.00000m   21.5771u  481.7060f  1.0651e-20  -21.5771u 
 -400.00000m   19.1753u  479.6009f -5.5838e-20  -19.1753u 
 -350.00000m   16.8707u  478.8583f -8.2235e-21  -16.8707u 
 -300.00000m   14.6720u  479.4995f  3.5737e-21  -14.6720u 
 -250.00000m   12.5850u  481.5544f -1.5887e-20  -12.5850u 
 -200.00000m   10.6075u  485.0710f  7.7890e-20  -10.6075u 
 -150.00000m    8.7149u  490.1462f -6.6337e-21   -8.7149u 
 -100.00000m    6.7993u  497.0698f -6.4680e-20   -6.7993u 
  -50.00000m    4.3383u  507.1196f  2.8583e-20   -4.3383u 
    0.       -260.5601f  521.1249f  7.3964e-21  260.5601f 
y
 ******
 ***** pmos.sp

 ****** dc transfer curves tnom=  25.000 temp=  70.000 ******
  *** parameter 0:vgs  =  -400.0000m       ***
  
x

 volt         current    current    current     current   
             vds        vgs        vvdd        mmn.main   
   -1.80000    44.2932u -349.2030f -1.0144e-19  -44.2932u 
   -1.75000    41.8278u -318.2415f -7.2542e-20  -41.8278u 
   -1.70000    39.3995u -288.3989f -2.9032e-21  -39.3995u 
   -1.65000    37.0139u -259.6748f -8.5039e-20  -37.0139u 
   -1.60000    34.6769u -232.0693f -1.3399e-19  -34.6769u 
   -1.55000    32.3940u -205.5820f  8.5358e-20  -32.3940u 
   -1.50000    30.1711u -180.2129f -2.4261e-20  -30.1711u 
   -1.45000    28.0134u -155.9621f  2.1741e-19  -28.0134u 
   -1.40000    25.9264u -132.8297f  2.0336e-20  -25.9264u 
   -1.35000    23.9148u -110.8157f  1.8782e-20  -23.9148u 
   -1.30000    21.9832u  -89.9205f  7.4797e-20  -21.9832u 
   -1.25000    20.1355u  -70.1445f  4.4468e-20  -20.1355u 
   -1.20000    18.3753u  -51.4880f -1.3220e-20  -18.3753u 
   -1.15000    16.7052u  -33.9517f -8.3135e-20  -16.7052u 
   -1.10000    15.1275u  -17.5362f -3.5674e-20  -15.1275u 
   -1.05000    13.6434u   -2.2422f -1.4413e-19  -13.6434u 
   -1.00000    12.2537u   11.9295f  5.6695e-20  -12.2537u 
 -950.00000m   10.9582u   24.9780f -1.0165e-20  -10.9582u 
 -900.00000m    9.7561u   36.9023f -6.3139e-20   -9.7561u 
 -850.00000m    8.6458u   47.7014f -7.3516e-21   -8.6458u 
 -800.00000m    7.6252u   57.3744f -2.9560e-20   -7.6252u 
 -750.00000m    6.6916u   65.9201f  3.6897e-20   -6.6916u 
 -700.00000m    5.8416u   73.3375f  3.2103e-22   -5.8416u 
 -650.00000m    5.0717u   79.6254f  3.8518e-21   -5.0717u 
 -600.00000m    4.3777u   84.7830f -4.0470e-20   -4.3777u 
 -550.00000m    3.7554u   88.8093f  1.3416e-20   -3.7554u 
 -500.00000m    3.2004u   91.7035f -1.0107e-20   -3.2004u 
 -450.00000m    2.7082u   93.4652f -2.6515e-21   -2.7082u 
 -400.00000m    2.2742u   94.0993f  1.9952e-20   -2.2742u 
 -350.00000m    1.8936u   94.2346f  9.3222e-21   -1.8936u 
 -300.00000m    1.5619u   95.5193f -1.0624e-20   -1.5619u 
 -250.00000m    1.2744u   97.9847f  1.0605e-20   -1.2744u 
 -200.00000m    1.0258u  101.6289f -4.1819e-21   -1.0258u 
 -150.00000m  810.2553n  106.4574f  2.4086e-21 -810.2553n 
 -100.00000m  617.4804n  112.4920f  3.1684e-21 -617.4804n 
  -50.00000m  411.0879n  119.8543f -4.2283e-21 -411.0879n 
    0.        -64.3939f  128.7896f  4.1539e-21   64.3939f 
y
 ******
 ***** pmos.sp

 ****** dc transfer curves tnom=  25.000 temp=  70.000 ******
  *** parameter 0:vgs  =  -200.0000m       ***
  
x

 volt         current    current    current     current   
             vds        vgs        vvdd        mmn.main   
   -1.80000     8.1447u -590.5069f -5.4555e-21   -8.1447u 
   -1.75000     7.3253u -553.8544f  6.5506e-21   -7.3253u 
   -1.70000     6.5737u -518.3567f -2.7843e-20   -6.5737u 
   -1.65000     5.8865u -484.0138f -1.2257e-20   -5.8865u 
   -1.60000     5.2601u -450.8259f -1.1981e-20   -5.2601u 
   -1.55000     4.6908u -418.7928f -2.2199e-21   -4.6908u 
   -1.50000     4.1747u -387.9147f -1.0213e-20   -4.1747u 
   -1.45000     3.7081u -358.1915f -2.0040e-21   -3.7081u 
   -1.40000     3.2873u -329.6233f  2.9185e-20   -3.2873u 
   -1.35000     2.9087u -302.2101f -2.5727e-21   -2.9087u 
   -1.30000     2.5687u -275.9519f -5.1863e-21   -2.5687u 
   -1.25000     2.2640u -250.8488f  3.5451e-21   -2.2640u 
   -1.20000     1.9915u -226.9008f -7.0210e-21   -1.9915u 
   -1.15000     1.7483u -204.1078f  1.8779e-20   -1.7483u 
   -1.10000     1.5314u -182.4700f  3.1439e-21   -1.5314u 
   -1.05000     1.3385u -161.9873f -8.9568e-22   -1.3385u 
   -1.00000     1.1671u -142.6598f -7.2429e-21   -1.1671u 
 -950.00000m    1.0152u -124.4874f -1.6131e-22   -1.0152u 
 -900.00000m  880.5789n -107.4702f  1.7883e-21 -880.5789n 
 -850.00000m  761.6218n  -91.6082f  8.2757e-22 -761.6218n 
 -800.00000m  656.6542n  -76.9014f  2.2142e-21 -656.6542n 
 -750.00000m  564.2029n  -63.3498f  1.6114e-21 -564.2029n 
 -700.00000m  482.9389n  -50.9534f  2.3763e-21 -482.9389n 
 -650.00000m  411.6659n  -39.7123f  1.8254e-21 -411.6659n 
 -600.00000m  349.3086n  -29.6264f  1.8352e-21 -349.3086n 
 -550.00000m  294.9014n  -20.6957f  2.6606e-21 -294.9014n 
 -500.00000m  247.5775n  -12.9203f  2.6485e-22 -247.5775n 
 -450.00000m  206.5584n   -6.3001f  8.0467e-22 -206.5584n 
 -400.00000m  171.1427n -835.0430a  1.2629e-21 -171.1427n 
 -350.00000m  140.6961n    3.4748f  4.9211e-22 -140.6961n 
 -300.00000m  114.6398n    6.6297f  4.6766e-22 -114.6398n 
 -250.00000m   92.4368n    8.6303f  3.8483e-22  -92.4368n 
 -200.00000m   73.5702n    9.4820f -1.5846e-23  -73.5702n 
 -150.00000m   57.4908n    9.8145f -3.1717e-22  -57.4908n 
 -100.00000m   43.4117n   11.2765f -5.8224e-23  -43.4117n 
  -50.00000m   28.8609n   13.9015f -3.6676e-22  -28.8609n 
    0.         -8.8454f   17.6915f -2.9911e-22    8.8454f 
y
 ******
 ***** pmos.sp

 ****** dc transfer curves tnom=  25.000 temp=  70.000 ******
  *** parameter 0:vgs  =     0.            ***
  
x

 volt         current     current     current     current    
             vds         vgs         vvdd        mmn.main    
   -1.80000   734.5304n  -758.2560f   1.3001e-21 -734.5304n  
   -1.75000   649.5225n  -716.9752f   6.5397e-21 -649.5225n  
   -1.70000   573.6953n  -676.8497f   3.7597e-21 -573.6953n  
   -1.65000   506.1242n  -637.8796f  -2.0413e-21 -506.1242n  
   -1.60000   445.9702n  -600.0648f   7.5518e-22 -445.9702n  
   -1.55000   392.4731n  -563.4054f   4.7711e-22 -392.4731n  
   -1.50000   344.9447n  -527.9013f  -3.0560e-21 -344.9447n  
   -1.45000   302.7629n  -493.5525f   3.4792e-21 -302.7629n  
   -1.40000   265.3654n  -460.3591f  -1.8471e-21 -265.3654n  
   -1.35000   232.2453n  -428.3210f  -6.1873e-22 -232.2453n  
   -1.30000   202.9452n  -397.4383f   2.2918e-22 -202.9452n  
   -1.25000   177.0535n  -367.7109f   1.2342e-21 -177.0535n  
   -1.20000   154.1998n  -339.1388f  -6.5591e-22 -154.1998n  
   -1.15000   134.0512n  -311.7221f  -1.6523e-21 -134.0512n  
   -1.10000   116.3090n  -285.4607f   4.6044e-22 -116.3090n  
   -1.05000   100.7053n  -260.3546f  -8.7187e-22 -100.7053n  
   -1.00000    87.0002n  -236.4039f  -1.3715e-22  -87.0002n  
 -950.00000m   74.9790n  -213.6085f   2.9074e-22  -74.9790n  
 -900.00000m   64.4500n  -191.9685f   1.6531e-22  -64.4500n  
 -850.00000m   55.2422n  -171.4838f   4.5131e-22  -55.2422n  
 -800.00000m   47.2030n  -152.1545f  -4.4619e-22  -47.2030n  
 -750.00000m   40.1967n  -133.9804f   1.4058e-22  -40.1967n  
 -700.00000m   34.1026n  -116.9618f  -1.5055e-23  -34.1026n  
 -650.00000m   28.8136n  -101.0984f  -1.3235e-22  -28.8136n  
 -600.00000m   24.2345n   -86.3904f  -1.6292e-23  -24.2345n  
 -550.00000m   20.2810n   -72.8377f  -9.8823e-23  -20.2810n  
 -500.00000m   16.8782n   -60.4404f  -1.1745e-23  -16.8782n  
 -450.00000m   13.9597n   -49.1984f   5.9545e-23  -13.9597n  
 -400.00000m   11.4664n   -39.1117f  -3.7681e-23  -11.4664n  
 -350.00000m    9.3456n   -30.1803f  -6.3389e-23   -9.3456n  
 -300.00000m    7.5499n   -22.4043f  -1.1850e-23   -7.5499n  
 -250.00000m    6.0361n   -15.7836f  -1.9884e-23   -6.0361n  
 -200.00000m    4.7638n   -10.3181f   3.2536e-23   -4.7638n  
 -150.00000m    3.6917n    -6.0078f   1.3837e-23   -3.6917n  
 -100.00000m    2.7651n    -2.8526f   2.7915e-24   -2.7651n  
  -50.00000m    1.8246n  -851.8624a   1.5402e-23   -1.8246n  
    0.        4.6772e-20 -9.5085e-20 -1.8676e-23 -4.6778e-20 
y

          ***** job concluded
 ******  
 ***** pmos.sp

 ****** job statistics summary tnom=  25.000 temp=  70.000 ******
  
 ******  Machine Information  ******
 CPU:
 model name	: Intel(R) Xeon(R) Silver 4215R CPU @ 3.20GHz
 cpu MHz	: 3198.917
  
 OS:
 Linux version 3.10.0-514.6.2.el7.x86_64 (mockbuild@x86-017.build.eng.bos.redhat.com) (gcc version 4.8.5 20150623 (Red Hat 4.8.5-11) (GCC) ) #1 SMP Fri Feb 17 19:21:31 EST 2017


  ******  HSPICE Threads Information  ******

  Command Line Threads Count :     1
  Available CPU Count        :     6
  Actual Threads Count       :     1


  ****** Statistics of Ignored Elements ******
  Voltage Sources :       1

  ******  Circuit Statistics  ******
  # nodes       =       4 # elements   =       4
  # resistors   =       0 # capacitors =       0 # inductors   =       0
  # mutual_inds =       0 # vccs       =       0 # vcvs        =       0
  # cccs        =       0 # ccvs       =       0 # volt_srcs   =       3
  # curr_srcs   =       0 # diodes     =       0 # bjts        =       0
  # jfets       =       0 # mosfets    =       1 # U elements  =       0
  # T elements  =       0 # W elements =       0 # B elements  =       0
  # S elements  =       0 # P elements =       0 # va device   =       0
  # vector_srcs =       0 # N elements =       0


  ******  Runtime Statistics (seconds)  ******

  analysis           time    # points   tot. iter  conv.iter
  op point           0.00           1           0
  dc sweep           0.01         370         759
  readin             0.01
  errchk             0.00
  setup              0.00
  output             0.00


           peak memory used        284.32 megabytes
           total cpu time            0.02 seconds
           total elapsed time       42.19 seconds
           job started at     14:20:08 10/28/2024
           job ended   at     14:20:50 10/28/2024



>info:         ***** hspice job concluded
 lic: Release hspice token(s) 
 lic: total license checkout elapse time:       42.16(s)
