$DATA1 SOURCE='HSPICE' VERSION='O-2018.09-1 linux64' PARAM_COUNT=0
.TITLE '*****'
 fdly             temper           alter#          
 -2.286e-09         70.0000        1               
